geometry optimzed in LAMMPS
_audit_creation_date              2020-11-30 
_audit_creation_method            'lammps2cif' 
_symmetry_space_group_name_H-M    'P1' 
_symmetry_Int_Tables_number       1 
_symmetry_cell_setting            triclinic 
loop_ 
_symmetry_equiv_pos_as_xyz 
  x,y,z 
_cell_length_a                    108.04710887 
_cell_length_b                    107.39524875071548 
_cell_length_c                    58.48983131152313 
_cell_angle_alpha                 90.10574846829452 
_cell_angle_beta                  89.87703792003094 
_cell_angle_gamma                 120.18807231676949 
loop_ 
_atom_site_label 
_atom_site_type_symbol 
_atom_site_fract_x 
_atom_site_fract_y 
_atom_site_fract_z 
_atom_site_charge 
C1          C  0.10573602  0.31191055  0.31252214     0.82300
N2          N  0.10371242  0.31433741  0.29038487    -0.76000
C3          C  0.09141113  0.31394672  0.28416652     0.84800
N4          N  0.08116170  0.31108324  0.30001415    -0.75900
C5          C  0.08310538  0.30864835  0.32207390     0.84900
N6          N  0.09539485  0.30902869  0.32837552    -0.77700
C7          C  0.11171699  0.32590192  0.85583950     0.82300
N8          N  0.10779493  0.32481134  0.87818687    -0.76000
C9          C  0.09684090  0.32688376  0.88437476     0.84800
N10         N  0.08981771  0.32999280  0.86827581    -0.75900
C11         C  0.09366416  0.33109814  0.84599395     0.84900
N12         N  0.10462548  0.32903263  0.83970112    -0.77700
O13         O  0.02851509  0.34282970  0.09272693    -0.55700
C14         C  0.04435082  0.31983497  0.12307360     0.76900
O15         O  0.00581305  0.29496318  0.08076421    -0.56900
C16         C  0.02166893  0.34251045  0.07502434     0.76900
C17         C  0.04280533  0.31900001  0.04592908     0.79300
Cd18       Cd  0.02698142  0.31933596  0.08537495     1.37500
O19         O  0.04340944  0.33076203  0.11798680    -0.55700
O20         O  0.04802324  0.32933024  0.05999185    -0.54500
C21         C  0.99899714  0.29601695  0.09753748     0.79200
O22         O  0.03033517  0.30868998  0.05001700    -0.56900
O23         O  0.03745758  0.30876125  0.11077282    -0.55300
O24         O  0.01721336  0.33158380  0.06226557    -0.55300
O25         O  0.00495895  0.30773184  0.10853740    -0.54500
C26         C  0.87600797  0.19800941  0.18537322     0.82300
N27         N  0.88612842  0.20605880  0.16953285    -0.76000
C28         C  0.89872910  0.21756596  0.17628776     0.84800
N29         N  0.90119467  0.22097001  0.19877588    -0.75900
C30         C  0.89113868  0.21296417  0.21459784     0.84900
N31         N  0.87852537  0.20146762  0.20791453    -0.77700
C32         C  0.87060822  0.20351640  0.64527251     0.82300
N33         N  0.87432776  0.20509078  0.62279454    -0.76000
C34         C  0.88609051  0.21730870  0.61546318     0.84800
N35         N  0.89411037  0.22791859  0.63057782    -0.75900
C36         C  0.89045544  0.22640925  0.65300750     0.84900
N37         N  0.87868570  0.21418825  0.66039850    -0.77700
O38         O  0.95150098  0.30114850  0.41069229    -0.55700
C39         C  0.93727662  0.26333824  0.37783863     0.76900
O40         O  0.97715024  0.27910287  0.42170009    -0.56900
C41         C  0.96028600  0.30870086  0.42608927     0.76900
C42         C  0.93910460  0.26344992  0.45439324     0.79300
Cd43       Cd  0.95502615  0.28020094  0.41536602     1.37500
O44         O  0.94080908  0.27640455  0.38038874    -0.55700
O45         O  0.93472701  0.27018157  0.44228846    -0.54500
C46         C  0.98279260  0.28464209  0.40268209     0.79200
O47         O  0.95087820  0.26446652  0.44874938    -0.56900
O48         O  0.94179788  0.25798740  0.39255483    -0.55300
O49         O  0.96673484  0.30327111  0.43632082    -0.55300
O50         O  0.97575110  0.28814802  0.38962667    -0.54500
C51         C  0.99931528  0.44032318  0.98043642     0.82300
N52         N  0.99721835  0.43575295  0.95836429    -0.76000
C53         C  0.99748609  0.42364606  0.95260118     0.84800
N54         N  0.99986158  0.41613227  0.96889713    -0.75900
C55         C  0.00194696  0.42064012  0.99095592     0.84900
N56         N  0.00169050  0.43276637  0.99676697    -0.77700
C57         C  0.98541892  0.43044221  0.51979555     0.82300
N58         N  0.98596390  0.42751955  0.54224907    -0.76000
C59         C  0.98449968  0.41467643  0.54848887     0.84800
N60         N  0.98249906  0.40478920  0.53230155    -0.75900
C61         C  0.98195164  0.40766692  0.50988710     0.84900
N62         N  0.98338802  0.42049702  0.50359690    -0.77700
O63         O  0.01585453  0.35878423  0.74770993    -0.55700
C64         C  0.99127540  0.37128758  0.71316058     0.76900
O65         O  0.96770777  0.33151808  0.75635412    -0.56900
C66         C  0.01457990  0.34998139  0.76313530     0.76900
C67         C  0.98976847  0.36998106  0.79054065     0.79300
Cd68       Cd  0.99099001  0.35421527  0.75132361     1.37500
O69         O  0.00137394  0.36876171  0.71639610    -0.55700
O70         O  0.00065172  0.37492856  0.77774565    -0.54500
C71         C  0.96846190  0.32584576  0.73782009     0.79200
O72         O  0.97928789  0.35778116  0.78533088    -0.56900
O73         O  0.98119368  0.36619306  0.72758474    -0.55300
O74         O  0.00250918  0.34302362  0.77277710    -0.55300
O75         O  0.97950721  0.33309415  0.72571551    -0.54500
C76         C  0.87173633  0.64804730  0.68982417     0.82300
N77         N  0.88195029  0.65105082  0.67371495    -0.76000
C78         C  0.89460514  0.65221454  0.67985656     0.84800
N79         N  0.89703018  0.65044687  0.70200812    -0.75900
C80         C  0.88685928  0.64745794  0.71807074     0.84900
N81         N  0.87421341  0.64629959  0.71201700    -0.77700
C82         C  0.87168620  0.64819867  0.13991296     0.82300
N83         N  0.87879270  0.64496921  0.15582051    -0.76000
C84         C  0.89017501  0.64364939  0.14947814     0.84800
N85         N  0.89442709  0.64556661  0.12732083    -0.75900
C86         C  0.88735745  0.64878822  0.11143698     0.84900
N87         N  0.87596876  0.65010481  0.11770815    -0.77700
O88         O  0.94083424  0.63758080  0.88275421    -0.55700
C89         C  0.96260679  0.62837460  0.92850747     0.76900
O90         O  0.97889086  0.67458964  0.92100668    -0.56900
C91         C  0.93929122  0.64794833  0.87633278     0.76900
C92         C  0.93990225  0.65209634  0.95137566     0.79300
Cd93       Cd  0.95703347  0.65078494  0.91476599     1.37500
O94         O  0.95801174  0.62852684  0.90872772    -0.55700
O95         O  0.93568956  0.64084302  0.93948928    -0.54500
C96         C  0.98528167  0.67401732  0.90325553     0.79200
O97         O  0.95196756  0.66282307  0.94642053    -0.56900
O98         O  0.96469141  0.63849711  0.94187265    -0.55300
O99         O  0.94594306  0.65958992  0.88742437    -0.55300
O100        O  0.97875298  0.66288640  0.89097650    -0.54500
C101        C  0.10693490  0.76823240  0.80749946     0.82300
N102        N  0.10385812  0.76413400  0.78527711    -0.76000
C103        C  0.09089660  0.75277222  0.77962622     0.84800
N104        N  0.08105097  0.74554215  0.79614353    -0.75900
C105        C  0.08408000  0.74959491  0.81832376     0.84900
N106        N  0.09703563  0.76096659  0.82404969    -0.77700
C107        C  0.10712108  0.76773499  0.35673332     0.82300
N108        N  0.10273758  0.76510492  0.37888654    -0.76000
C109        C  0.09073154  0.75262055  0.38457603     0.84800
N110        N  0.08316791  0.74278846  0.36816795    -0.75900
C111        C  0.08749728  0.74536751  0.34605787     0.84900
N112        N  0.09951202  0.75784650  0.34029542    -0.77700
O113        O  0.03716475  0.68641388  0.61636969    -0.55700
C114        C  0.01742666  0.65517869  0.57004317     0.76900
O115        O  0.00137797  0.68686003  0.57950519    -0.56900
C116        C  0.04024626  0.69922110  0.62036964     0.76900
C117        C  0.03810758  0.70048258  0.54368699     0.79300
Cd118      Cd  0.02232275  0.68327473  0.58246705     1.37500
O119        O  0.02456726  0.66165321  0.58760660    -0.55700
O120        O  0.04354295  0.69553493  0.55748462    -0.54500
C121        C  0.99453852  0.67859731  0.59592295     0.79200
O122        O  0.02539130  0.69749772  0.54757601    -0.56900
O123        O  0.01249586  0.66154369  0.55825594    -0.55300
O124        O  0.03513601  0.70471072  0.60699206    -0.55300
O125        O  0.00040698  0.67254620  0.60606067    -0.54500
C126        C  0.99193652  0.53572685  0.02429883     0.82300
N127        N  0.98836865  0.54258434  0.00839405    -0.76000
C128        C  0.98644580  0.55365364  0.01474526     0.84800
N129        N  0.98805589  0.55783184  0.03691984    -0.75900
C130        C  0.99159702  0.55102014  0.05284317     0.84900
N131        N  0.99352560  0.53992318  0.04657295    -0.77700
C132        C  0.99142692  0.53286284  0.47705062     0.82300
N133        N  0.98911359  0.53548297  0.45519372    -0.76000
C134        C  0.99004408  0.54822553  0.44985504     0.84800
N135        N  0.99331158  0.55830426  0.46629336    -0.75900
C136        C  0.99563105  0.55574675  0.48808156     0.84900
N137        N  0.99470206  0.54301200  0.49351848    -0.77700
O138        O  0.01228018  0.63793356  0.25069493    -0.55700
C139        C  0.99040249  0.60160059  0.21366977     0.76900
O140        O  0.97551058  0.60120785  0.28601164    -0.56900
C141        C  0.01008220  0.64527970  0.26532594     0.76900
C142        C  0.96497805  0.62124990  0.23845537     0.79300
Cd143      Cd  0.98786988  0.61670052  0.25259141     1.37500
O144        O  0.00037548  0.61400384  0.21917948    -0.55700
O145        O  0.97687655  0.62706155  0.22816537    -0.54500
C146        C  0.98571861  0.59929670  0.29161861     0.79200
O147        O  0.96352206  0.61331823  0.25537869    -0.56900
O148        O  0.97931328  0.59607648  0.22605606    -0.55300
O149        O  0.99775600  0.63951133  0.27421030    -0.55300
O150        O  0.99685341  0.60532069  0.27936988    -0.54500
C151        C  0.66736125  0.77200643  0.31447187     0.82300
N152        N  0.66963253  0.76420190  0.33047747    -0.76000
C153        C  0.67038744  0.75243512  0.32407377     0.84800
N154        N  0.66886058  0.74850059  0.30177379    -0.75900
C155        C  0.66659987  0.75625606  0.28579598     0.84900
N156        N  0.66583173  0.76801610  0.29212234    -0.77700
C157        C  0.64878975  0.76287675  0.85690314     0.82300
N158        N  0.64603632  0.75281151  0.84051244    -0.76000
C159        C  0.64625242  0.74062410  0.84591643     0.84800
N160        N  0.64919180  0.73852428  0.86760103    -0.75900
C161        C  0.65195134  0.74853965  0.88394351     0.84900
N162        N  0.65174536  0.76072915  0.87862651    -0.77700
O163        O  0.68530072  0.69259020  0.08373306    -0.55700
C164        C  0.66221657  0.70382844  0.04472519     0.76900
O165        O  0.63486027  0.66795114  0.08655760    -0.56900
C166        C  0.68341924  0.68299536  0.09805414     0.76900
C167        C  0.65912402  0.70333346  0.12354486     0.79300
Cd168      Cd  0.66025964  0.68741189  0.08476272     1.37500
O169        O  0.67087229  0.69933042  0.04791066    -0.55700
O170        O  0.66817501  0.70939192  0.10772233    -0.54500
C171        C  0.63624881  0.65978037  0.07250250     0.79200
O172        O  0.65051462  0.68996391  0.12156798    -0.56900
O173        O  0.65276102  0.70081546  0.05984318    -0.55300
O174        O  0.67096172  0.67542988  0.10614444    -0.55300
O175        O  0.64859157  0.66423653  0.06427632    -0.54500
C176        C  0.54322765  0.52998935  0.51784745     0.82300
N177        N  0.55373921  0.53717425  0.50208427    -0.76000
C178        C  0.56636181  0.54876536  0.50857589     0.84800
N179        N  0.56843440  0.55310931  0.53068718    -0.75900
C180        C  0.55799557  0.54597610  0.54640200     0.84900
N181        N  0.54537514  0.53439081  0.54001976    -0.77700
C182        C  0.53682199  0.53862134  0.98006423     0.82300
N183        N  0.54110606  0.54075322  0.95785055    -0.76000
C184        C  0.55270034  0.55336858  0.95137815     0.84800
N185        N  0.55999192  0.56382599  0.96708041    -0.75900
C186        C  0.55576605  0.56176260  0.98925528     0.84900
N187        N  0.54416917  0.54913308  0.99581452    -0.77700
O188        O  0.63940538  0.60877643  0.75113243    -0.55700
C189        C  0.60358097  0.59809832  0.78774286     0.76900
O190        O  0.61524813  0.63459242  0.74417293    -0.56900
C191        C  0.64792139  0.61903319  0.73837220     0.76900
C192        C  0.60407431  0.59855931  0.70870944     0.79300
Cd193      Cd  0.61975486  0.61426427  0.74850695     1.37500
O194        O  0.61671138  0.60215172  0.78557306    -0.55700
O195        O  0.60752015  0.59267357  0.72415675    -0.54500
C196        C  0.62397301  0.64220363  0.75962420     0.79200
O197        O  0.60779621  0.61165444  0.71149919    -0.56900
O198        O  0.59784446  0.60142492  0.77191323    -0.55300
O199        O  0.64349881  0.62698472  0.73028225    -0.55300
O200        O  0.63061592  0.63697130  0.76981152    -0.54500
C201        C  0.78048376  0.65992836  0.19193670     0.82300
N202        N  0.77290866  0.66238127  0.17584348    -0.76000
C203        C  0.76128036  0.66328553  0.18208467     0.84800
N204        N  0.75725103  0.66174444  0.20433366    -0.75900
C205        C  0.76478384  0.65929607  0.22041703     0.84900
N206        N  0.77642191  0.65838430  0.21424142    -0.77700
C207        C  0.77128647  0.64562665  0.65229322     0.82300
N208        N  0.76076857  0.64239288  0.66794008    -0.76000
C209        C  0.74861691  0.64226584  0.66158482     0.84800
N210        N  0.74700251  0.64530712  0.63968611    -0.75900
C211        C  0.75748075  0.64852526  0.62409871     0.84900
N212        N  0.76961785  0.64865970  0.63037760    -0.77700
O213        O  0.67506890  0.62676472  0.41718118    -0.55700
C214        C  0.71225346  0.65112792  0.38328848     0.76900
O215        O  0.69825453  0.67562724  0.42557375    -0.56900
C216        C  0.66798170  0.62754500  0.43377752     0.76900
C217        C  0.71312038  0.65325730  0.46033007     0.79300
Cd218      Cd  0.69575602  0.65146098  0.42176350     1.37500
O219        O  0.69986409  0.64065393  0.38729881    -0.55700
O220        O  0.70823641  0.64275476  0.44660275    -0.54500
C221        C  0.69033856  0.67420938  0.40873063     0.79200
O222        O  0.71003226  0.66295110  0.45644037    -0.56900
O223        O  0.71708507  0.66163961  0.39698618    -0.55300
O224        O  0.67359506  0.63925280  0.44480848    -0.55300
O225        O  0.68476229  0.66234230  0.39816942    -0.54500
C226        C  0.44299349  0.43417587  0.02323380     0.82300
N227        N  0.43941578  0.43179758  0.04574987    -0.76000
C228        C  0.42774834  0.41929621  0.05242764     0.84800
N229        N  0.41968276  0.40922551  0.03664048    -0.75900
C230        C  0.42318571  0.41153392  0.01418338     0.84900
N231        N  0.43486946  0.42402984  0.00740740    -0.77700
C232        C  0.43994759  0.43417806  0.47701464     0.82300
N233        N  0.43673198  0.42982129  0.45489926    -0.76000
C234        C  0.42380684  0.41826561  0.44958648     0.84800
N235        N  0.41411809  0.41112662  0.46636495    -0.75900
C236        C  0.41727551  0.41543122  0.48844385     0.84900
N237        N  0.43019952  0.42698678  0.49379993    -0.77700
O238        O  0.33490014  0.35202340  0.24244865    -0.55700
C239        C  0.37358938  0.36896480  0.21121266     0.76900
O240        O  0.37357907  0.35524906  0.28088344    -0.56900
C241        C  0.32853615  0.34484207  0.26009350     0.76900
C242        C  0.35122447  0.32238942  0.23609252     0.79300
Cd243      Cd  0.35695413  0.35079059  0.24872194     1.37500
O244        O  0.36151882  0.36740063  0.21634893    -0.55700
O245        O  0.34697602  0.32925916  0.22405835    -0.54500
C246        C  0.37391550  0.36656682  0.28784679     0.79200
O247        O  0.35812941  0.32850687  0.25403698    -0.56900
O248        O  0.37802039  0.36226109  0.22326544    -0.55300
O249        O  0.33521673  0.34051902  0.27240876    -0.55300
O250        O  0.36650996  0.37064094  0.27690286    -0.54500
C251        C  0.32374166  0.20079261  0.69387118     0.82300
N252        N  0.32608722  0.20579622  0.71574344    -0.76000
C253        C  0.32627277  0.21824475  0.72081688     0.84800
N254        N  0.32402248  0.22559324  0.70407292    -0.75900
C255        C  0.32169106  0.22065653  0.68225220     0.84900
N256        N  0.32150890  0.20822070  0.67713591    -0.77700
C257        C  0.32365719  0.19864612  0.14601430     0.82300
N258        N  0.32684296  0.20901742  0.16203185    -0.76000
C259        C  0.32837565  0.22188321  0.15575171     0.84800
N260        N  0.32676534  0.22436329  0.13356726    -0.75900
C261        C  0.32359695  0.21406527  0.11756338     0.84900
N262        N  0.32204507  0.20117356  0.12374827    -0.77700
O263        O  0.33392192  0.28130858  0.88743706    -0.55700
C264        C  0.34279462  0.31124339  0.93578439     0.76900
O265        O  0.29630026  0.27872954  0.92547783    -0.56900
C266        C  0.32457122  0.26862735  0.88191119     0.76900
C267        C  0.31963471  0.26512888  0.95942475     0.79300
Cd268      Cd  0.32094516  0.28281447  0.92134898     1.37500
O269        O  0.34465924  0.30503320  0.91887535    -0.55700
O270        O  0.33077036  0.27181571  0.94730549    -0.54500
C271        C  0.29699369  0.28617629  0.90830776     0.79200
O272        O  0.30901135  0.26639291  0.95397336    -0.56900
O273        O  0.33087869  0.30451834  0.94594497    -0.55300
O274        O  0.31358449  0.26239796  0.89448518    -0.55300
O275        O  0.30866929  0.29220611  0.89738061    -0.54500
C276        C  0.20316341  0.31249235  0.81000822     0.82300
N277        N  0.20745631  0.31383529  0.78781591    -0.76000
C278        C  0.21866312  0.31205480  0.78207140     0.84800
N279        N  0.22550281  0.30889886  0.79846123    -0.75900
C280        C  0.22126117  0.30753456  0.82058207     0.84900
N281        N  0.21006237  0.30931063  0.82639295    -0.77700
C282        C  0.20670335  0.31562769  0.35584470     0.82300
N283        N  0.20988367  0.31424678  0.37787160    -0.76000
C284        C  0.22258352  0.31512816  0.38287550     0.84800
N285        N  0.23206301  0.31744295  0.36592996    -0.75900
C286        C  0.22896691  0.31883781  0.34398827     0.84900
N287        N  0.21628577  0.31796414  0.33889669    -0.77700
O288        O  0.28512598  0.32781225  0.61723998    -0.55700
C289        C  0.31825235  0.34029067  0.57275853     0.76900
O290        O  0.28809526  0.29266770  0.57900892    -0.56900
C291        C  0.27337167  0.31676873  0.62246134     0.76900
C292        C  0.27334034  0.31561511  0.54483253     0.79300
Cd293      Cd  0.29013306  0.31665661  0.58397513     1.37500
O294        O  0.31174501  0.34059807  0.59055299    -0.55700
O295        O  0.27877103  0.32629024  0.55824461    -0.54500
C296        C  0.29620931  0.29408888  0.59557170     0.79200
O297        O  0.27543611  0.30533259  0.54949021    -0.56900
O298        O  0.31189275  0.32922936  0.56026163    -0.55300
O299        O  0.26928306  0.30576750  0.61000550    -0.55300
O300        O  0.30149347  0.30576540  0.60662536    -0.54500
C301        C  0.77547173  0.10098553  0.69315981     0.82300
N302        N  0.77095179  0.09812663  0.71526005    -0.76000
C303        C  0.75948291  0.08516388  0.72085831     0.84800
N304        N  0.75258287  0.07512130  0.70441482    -0.75900
C305        C  0.75703268  0.07790189  0.68238480     0.84900
N306        N  0.76850150  0.09085303  0.67670219    -0.77700
C307        C  0.77330398  0.10194790  0.14298377     0.82300
N308        N  0.76302566  0.09516875  0.15924407    -0.76000
C309        C  0.75032832  0.08338684  0.15357461     0.84800
N310        N  0.74795262  0.07844688  0.13177934    -0.75900
C311        C  0.75816380  0.08516039  0.11557651     0.84900
N312        N  0.77085239  0.09693944  0.12113757    -0.77700
O313        O  0.66718192  0.01950664  0.91590300    -0.55700
C314        C  0.70410450  0.03380972  0.87948633     0.76900
O315        O  0.70483971  0.02034085  0.95068552    -0.56900
C316        C  0.66099660  0.01203852  0.93339801     0.76900
C317        C  0.68267643  0.98836113  0.90579369     0.79300
Cd318      Cd  0.68855715  0.01672262  0.91865678     1.37500
O319        O  0.69211751  0.03228672  0.88512914    -0.55700
O320        O  0.67751695  0.99483143  0.89485302    -0.54500
C321        C  0.70681515  0.03257123  0.95632230     0.79200
O322        O  0.69042410  0.99480443  0.92288071    -0.56900
O323        O  0.70895960  0.02761319  0.89183793    -0.55300
O324        O  0.66736460  0.00664184  0.94397121    -0.55300
O325        O  0.70052930  0.03759249  0.94457663    -0.54500
C326        C  0.65436528  0.86501281  0.81355705     0.82300
N327        N  0.65709036  0.87507937  0.82992662    -0.76000
C328        C  0.65812549  0.88780440  0.82409810     0.84800
N329        N  0.65648732  0.89045484  0.80201388    -0.75900
C330        C  0.65378251  0.88046723  0.78565866     0.84900
N331        N  0.65273514  0.86772120  0.79139142    -0.77700
C332        C  0.65354998  0.86310741  0.36330440     0.82300
N333        N  0.65052926  0.87023168  0.34706903    -0.76000
C334        C  0.64841582  0.88122774  0.35318941     0.84800
N335        N  0.64932764  0.88507743  0.37547203    -0.75900
C336        C  0.65233807  0.87801086  0.39171894     0.84900
N337        N  0.65446439  0.86700814  0.38565207    -0.77700
O338        O  0.63207478  0.94944755  0.59204595    -0.55700
C339        C  0.65199568  0.93169545  0.62628018     0.76900
O340        O  0.66712793  0.94516553  0.55582900    -0.56900
C341        C  0.63333064  0.95635299  0.57388137     0.76900
C342        C  0.67881190  0.97816698  0.60097775     0.79300
Cd343      Cd  0.65525638  0.95013311  0.58806240     1.37500
O344        O  0.64249643  0.93486780  0.62161791    -0.55700
O345        O  0.66703412  0.97230739  0.61161248    -0.54500
C346        C  0.65617648  0.93349004  0.54992432     0.79200
O347        O  0.67986839  0.97121539  0.58436612    -0.56900
O348        O  0.66290284  0.93695340  0.61351199    -0.55300
O349        O  0.64464397  0.96048610  0.56236018    -0.55300
O350        O  0.64489017  0.92950989  0.56142858    -0.54500
C351        C  0.53907794  0.98224188  0.47551293     0.82300
N352        N  0.54610814  0.97944518  0.49216754    -0.76000
C353        C  0.55790722  0.97859924  0.48684138     0.84800
N354        N  0.56262013  0.98051122  0.46491954    -0.75900
C355        C  0.55564471  0.98330206  0.44826640     0.84900
N356        N  0.54384451  0.98415387  0.45354944    -0.77700
C357        C  0.53865151  0.98422005  0.02720541     0.82300
N358        N  0.54866263  0.98722901  0.01069058    -0.76000
C359        C  0.56146351  0.98853439  0.01628130     0.84800
N360        N  0.56423243  0.98686967  0.03829130    -0.75900
C361        C  0.55431507  0.98387591  0.05480599     0.84900
N362        N  0.54149480  0.98255930  0.04929557    -0.77700
O363        O  0.60797569  0.96899161  0.21706287    -0.55700
C364        C  0.62852104  0.95802270  0.26378143     0.76900
O365        O  0.64597680  0.00491050  0.25446256    -0.56900
C366        C  0.60575637  0.97918967  0.21233517     0.76900
C367        C  0.60802307  0.98355662  0.28858146     0.79300
Cd368      Cd  0.62372967  0.98117275  0.25028241     1.37500
O369        O  0.62129793  0.95699444  0.24618576    -0.55700
O370        O  0.60280342  0.97243934  0.27611750    -0.54500
C371        C  0.65173429  0.00407726  0.23613481     0.79200
O372        O  0.62046108  0.99361400  0.28355828    -0.56900
O373        O  0.63362170  0.96963588  0.27496620    -0.55300
O374        O  0.61171521  0.99021204  0.22499780    -0.55300
O375        O  0.64476797  0.99273223  0.22444523    -0.54500
C376        C  0.31773372  0.09668490  0.19127984     0.82300
N377        N  0.31391570  0.08621461  0.17521323    -0.76000
C378        C  0.31340386  0.07368705  0.18074478     0.84800
N379        N  0.31667582  0.07165150  0.20225336    -0.75900
C380        C  0.32049416  0.08207534  0.21827802     0.84900
N381        N  0.32099967  0.09459991  0.21283049    -0.77700
C382        C  0.32395123  0.10151909  0.64899101     0.82300
N383        N  0.32694198  0.09430234  0.66510853    -0.76000
C384        C  0.32877800  0.08314656  0.65887338     0.84800
N385        N  0.32768838  0.07927308  0.63657270    -0.75900
C386        C  0.32472720  0.08644019  0.62043537     0.84900
N387        N  0.32287870  0.09760211  0.62662490    -0.77700
O388        O  0.33609075  0.03280499  0.38472212    -0.55700
C389        C  0.34625091  0.01261760  0.43240179     0.76900
O390        O  0.31270828  0.02352506  0.45271122    -0.56900
C391        C  0.32673279  0.03623563  0.38047135     0.76900
C392        C  0.30092921  0.99128272  0.40673703     0.79300
Cd393      Cd  0.32437257  0.01905792  0.41972697     1.37500
O394        O  0.34855757  0.02207930  0.41755120    -0.55700
O395        O  0.31243654  0.99747179  0.39539303    -0.54500
C396        C  0.32353075  0.03532469  0.45849552     0.79200
O397        O  0.30010544  0.99781630  0.42415792    -0.56900
O398        O  0.33394992  0.00613790  0.44139452    -0.55300
O399        O  0.31641394  0.03195837  0.39435119    -0.55300
O400        O  0.33468921  0.03968917  0.44648888    -0.54500
C401        C  0.20388021  0.86953861  0.31321665     0.82300
N402        N  0.21094770  0.88025315  0.32875288    -0.76000
C403        C  0.22272218  0.89273990  0.32226346     0.84800
N404        N  0.22740613  0.89446922  0.30034405    -0.75900
C405        C  0.22037961  0.88378647  0.28485249     0.84900
N406        N  0.20860066  0.87131627  0.29126933    -0.77700
C407        C  0.21001931  0.86235342  0.85387451     0.82300
N408        N  0.21984350  0.87049751  0.83774445    -0.76000
C409        C  0.23229291  0.88233686  0.84406072     0.84800
N410        N  0.23488704  0.88601881  0.86645368    -0.75900
C411        C  0.22510998  0.87791908  0.88259569     0.84900
N412        N  0.21264633  0.86607327  0.87631510    -0.77700
O413        O  0.28370769  0.92993549  0.11565766    -0.55700
C414        C  0.31623728  0.95339613  0.07282339     0.76900
O415        O  0.27431681  0.94376056  0.04817855    -0.56900
C416        C  0.27201339  0.92870491  0.12232921     0.76900
C417        C  0.29076057  0.97448859  0.09666346     0.79300
Cd418      Cd  0.28757747  0.94696356  0.08423932     1.37500
O419        O  0.31068055  0.94803074  0.09196511    -0.55700
O420        O  0.29836237  0.96991300  0.10554777    -0.54500
C421        C  0.27118178  0.93085919  0.04492201     0.79200
O422        O  0.28172578  0.96652388  0.08184684    -0.56900
O423        O  0.30876160  0.95596618  0.05915044    -0.55300
O424        O  0.26744321  0.93574035  0.11149426    -0.55300
O425        O  0.27547603  0.92533303  0.05970985    -0.54500
C426        C  0.44448314  0.98970326  0.52210665     0.82300
N427        N  0.44069070  0.98828913  0.54455797    -0.76000
C428        C  0.42906460  0.98914139  0.55108734     0.84800
N429        N  0.42127104  0.99136333  0.53521139    -0.75900
C430        C  0.42501221  0.99276736  0.51284511     0.84900
N431        N  0.43662384  0.99192900  0.50623620    -0.77700
C432        C  0.43672229  0.97659993  0.97852126     0.82300
N433        N  0.42661776  0.97415549  0.99457365    -0.76000
C434        C  0.41410470  0.97328380  0.98829054     0.84800
N435        N  0.41172521  0.97486128  0.96601359    -0.75900
C436        C  0.42176345  0.97730935  0.94994643     0.84900
N437        N  0.43428488  0.97818215  0.95619168    -0.77700
O438        O  0.36219612  0.97225070  0.71611567    -0.55700
C439        C  0.32966508  0.96155438  0.76013935     0.76900
O440        O  0.37574185  0.99608702  0.78183599    -0.56900
C441        C  0.37454334  0.98255572  0.71129738     0.76900
C442        C  0.35375304  0.00741268  0.73826173     0.79300
Cd443      Cd  0.35859409  0.98407760  0.74987684     1.37500
O444        O  0.33671825  0.96023680  0.74399234    -0.55700
O445        O  0.35118806  0.99740695  0.72431391    -0.54500
C446        C  0.37583941  0.98493746  0.78844138     0.79200
O447        O  0.35873488  0.00687510  0.75753444    -0.56900
O448        O  0.33586184  0.97309553  0.77155926    -0.55300
O449        O  0.37961111  0.99345253  0.72424464    -0.55300
O450        O  0.36806569  0.97345815  0.77746179    -0.54500
C451        C  0.39796573  0.98390031  0.84436874     0.19100
C452        C  0.39483010  0.97035186  0.85252285    -0.10000
C453        C  0.40091730  0.96920829  0.87294910    -0.10800
C454        C  0.41021204  0.98160886  0.88537156     0.20700
C455        C  0.41358477  0.99518829  0.87699378    -0.12900
C456        C  0.40748926  0.99633322  0.85654713    -0.11200
C457        C  0.41553032  0.98031446  0.90734638     0.01600
C458        C  0.41899627  0.97902453  0.92643423    -0.31200
C459        C  0.39087654  0.98491579  0.82413478     0.03000
C460        C  0.38428102  0.98521283  0.80767362    -0.32800
H461        H  0.38746218  0.96065470  0.84332359     0.14100
H462        H  0.39814988  0.95864373  0.87928431     0.13900
H463        H  0.42068773  0.00485582  0.88648878     0.13800
H464        H  0.40998235  0.00687112  0.85048192     0.12800
C465        C  0.39694347  0.98248610  0.65493180     0.19100
C466        C  0.41183197  0.99165868  0.65398853    -0.10000
C467        C  0.41937378  0.99264025  0.63391930    -0.10800
C468        C  0.41206218  0.98443579  0.61469746     0.20700
C469        C  0.39720885  0.97512270  0.61575975    -0.12900
C470        C  0.38967534  0.97414714  0.63580013    -0.11200
C471        C  0.41954015  0.98607611  0.59345977     0.01600
C472        C  0.42467332  0.98747459  0.57462956    -0.31200
C473        C  0.38906387  0.98201842  0.67518209     0.03000
C474        C  0.38241940  0.98202461  0.69181582    -0.32800
H475        H  0.41756928  0.99819922  0.66863503     0.14100
H476        H  0.43083700  0.99994629  0.63327659     0.13900
H477        H  0.39141976  0.96879332  0.60097048     0.13800
H478        H  0.37816988  0.96705695  0.63626361     0.12800
C479        C  0.35545076  0.96120597  0.05108911     0.19100
C480        C  0.35765313  0.94965824  0.04637065    -0.10000
C481        C  0.37036044  0.95214278  0.03587467    -0.10800
C482        C  0.38094666  0.96619108  0.03004401     0.20700
C483        C  0.37886766  0.97776390  0.03520856    -0.12900
C484        C  0.36616491  0.97528033  0.04569979    -0.11200
C485        C  0.39342986  0.96863639  0.01730959     0.01600
C486        C  0.40328123  0.97072787  0.00499306    -0.31200
C487        C  0.34192225  0.95855651  0.06023731     0.03000
C488        C  0.33033063  0.95627953  0.06664241    -0.32800
H489        H  0.34943034  0.93872067  0.05034692     0.14100
H490        H  0.37178541  0.94309228  0.03183367     0.13900
H491        H  0.38691602  0.98866211  0.03064763     0.13800
H492        H  0.36457126  0.98429247  0.04915071     0.12800
C493        C  0.24958513  0.90831805  0.98802615     0.19100
C494        C  0.24792596  0.89470979  0.98373770    -0.10000
C495        C  0.24162681  0.88745389  0.96333320    -0.10800
C496        C  0.23693813  0.89376330  0.94711947     0.20700
C497        C  0.23836294  0.90725075  0.95160323    -0.12900
C498        C  0.24466135  0.91450343  0.97199015    -0.11200
C499        C  0.23153273  0.88690888  0.92529481     0.01600
C500        C  0.22800010  0.88216843  0.90619281    -0.31200
C501        C  0.25679081  0.91614973  0.00844107     0.03000
C502        C  0.26320295  0.92285339  0.02520396    -0.32800
H503        H  0.25171566  0.88982643  0.99597660     0.14100
H504        H  0.24066648  0.87707517  0.96001561     0.13900
H505        H  0.23486143  0.91228177  0.93914856     0.13800
H506        H  0.24590749  0.92502556  0.97507070     0.12800
C507        C  0.28982042  0.93016083  0.78010061     0.19100
C508        C  0.28680793  0.91589232  0.78197307    -0.10000
C509        C  0.27417938  0.90552359  0.79260515    -0.10800
C510        C  0.26448308  0.90936227  0.80140796     0.20700
C511        C  0.26728280  0.92352814  0.79891901    -0.12900
C512        C  0.27991459  0.93389933  0.78829078    -0.11200
C513        C  0.25229867  0.89912296  0.81457011     0.01600
C514        C  0.24277779  0.89109582  0.82722487    -0.31200
C515        C  0.30349909  0.94112755  0.77135912     0.03000
C516        C  0.31532266  0.95039663  0.76555293    -0.32800
H517        H  0.29440419  0.91287953  0.77580733     0.14100
H518        H  0.27217954  0.89463230  0.79454110     0.13900
H519        H  0.25991115  0.92664860  0.80577192     0.13800
H520        H  0.28214173  0.94490232  0.78704611     0.12800
C521        C  0.25008434  0.90614929  0.17874948     0.19100
C522        C  0.24096275  0.91038256  0.18865866    -0.10000
C523        C  0.23411365  0.90436329  0.20936831    -0.10800
C524        C  0.23633155  0.89406416  0.22031391     0.20700
C525        C  0.24522900  0.88958712  0.21021022    -0.12900
C526        C  0.25209550  0.89562131  0.18943408    -0.11200
C527        C  0.23014382  0.88887664  0.24253186     0.01600
C528        C  0.22538614  0.88587648  0.26166632    -0.31200
C529        C  0.25781300  0.91315730  0.15821609     0.03000
C530        C  0.26432847  0.91989725  0.14157080    -0.32800
H531        H  0.23936297  0.91854023  0.18059544     0.14100
H532        H  0.22732356  0.90796073  0.21708582     0.13900
H533        H  0.24707795  0.88168123  0.21859156     0.13800
H534        H  0.25915855  0.89229482  0.18195173     0.12800
C535        C  0.37696346  0.00391251  0.45388932     0.19100
C536        C  0.37286255  0.99104513  0.46560631    -0.10000
C537        C  0.38325884  0.98855105  0.47520203    -0.10800
C538        C  0.39780474  0.99890505  0.47311260     0.20700
C539        C  0.40192227  0.01167375  0.46107326    -0.12900
C540        C  0.39151747  0.01416784  0.45146310    -0.11200
C541        C  0.40834866  0.99681418  0.48472015     0.01600
C542        C  0.41648447  0.99501592  0.49642870    -0.31200
C543        C  0.36622761  0.00684947  0.44527603     0.03000
C544        C  0.35714931  0.00944593  0.43897711    -0.32800
H545        H  0.36163903  0.98307252  0.46767712     0.14100
H546        H  0.37994895  0.97869420  0.48464376     0.13900
H547        H  0.41313017  0.01980455  0.45952003     0.13800
H548        H  0.39480028  0.02418337  0.44252306     0.12800
C549        C  0.24845723  0.92679579  0.36288844     0.19100
C550        C  0.26270297  0.92999565  0.36438341    -0.10000
C551        C  0.27299029  0.94274916  0.37484313    -0.10800
C552        C  0.26909519  0.95238717  0.38386804     0.20700
C553        C  0.25479873  0.94907950  0.38275039    -0.12900
C554        C  0.24449629  0.93630822  0.37226845    -0.11200
C555        C  0.27990869  0.96594165  0.39323966     0.01600
C556        C  0.28932701  0.97746093  0.39996610    -0.31200
C557        C  0.23820761  0.91420864  0.35048297     0.03000
C558        C  0.23053829  0.90408718  0.33847948    -0.32800
H559        H  0.26590971  0.92277072  0.35706258     0.14100
H560        H  0.28401820  0.94521842  0.37551433     0.13900
H561        H  0.25167799  0.95648278  0.38958733     0.13800
H562        H  0.23353439  0.93399400  0.37108744     0.12800
C563        C  0.32310323  0.05760052  0.51494838     0.19100
C564        C  0.31020463  0.05373326  0.52622822    -0.10000
C565        C  0.31026324  0.06060868  0.54662769    -0.10800
C566        C  0.32322087  0.07141021  0.55586374     0.20700
C567        C  0.33609972  0.07543472  0.54438841    -0.12900
C568        C  0.33604101  0.06855896  0.52399041    -0.11200
C569        C  0.32340004  0.07770914  0.57776864     0.01600
C570        C  0.32380828  0.08220699  0.59686228    -0.31200
C571        C  0.32311281  0.04999151  0.49459446     0.03000
C572        C  0.32321870  0.04336792  0.47795635    -0.32800
H573        H  0.30013709  0.04525523  0.51945456     0.14100
H574        H  0.30024450  0.05732602  0.55539888     0.13900
H575        H  0.34619787  0.08369649  0.55141820     0.13800
H576        H  0.34608947  0.07162483  0.51547726     0.12800
C577        C  0.33900354  0.05900300  0.69958143     0.19100
C578        C  0.32890666  0.04772436  0.71323069    -0.10000
C579        C  0.33217830  0.03775908  0.72272979    -0.10800
C580        C  0.34555494  0.03902399  0.71860272     0.20700
C581        C  0.35577084  0.05052619  0.70547506    -0.12900
C582        C  0.35250588  0.06047818  0.69599715    -0.11200
C583        C  0.34856086  0.02814671  0.72671812     0.01600
C584        C  0.35103858  0.01881860  0.73241697    -0.31200
C585        C  0.33518610  0.06832392  0.68764204     0.03000
C586        C  0.33214615  0.07549853  0.67557586    -0.32800
H587        H  0.31839778  0.04641020  0.71600804     0.14100
H588        H  0.32417355  0.02889104  0.73280212     0.13900
H589        H  0.36612833  0.05160030  0.70210401     0.13800
H590        H  0.36036674  0.06908834  0.68535570     0.12800
C591        C  0.32665026  0.07068020  0.28163311     0.19100
C592        C  0.33805576  0.06829897  0.28588279    -0.10000
C593        C  0.33864261  0.06200058  0.30646912    -0.10800
C594        C  0.32781992  0.05805366  0.32285672     0.20700
C595        C  0.31652410  0.06061199  0.31871723    -0.12900
C596        C  0.31593933  0.06690680  0.29815199    -0.11200
C597        C  0.32798928  0.05090656  0.34353673     0.01600
C598        C  0.32765259  0.04444677  0.36057562    -0.31200
C599        C  0.32540761  0.07611425  0.25981559     0.03000
C600        C  0.32356275  0.07953699  0.24107674    -0.32800
H601        H  0.34633463  0.07107011  0.27314681     0.14100
H602        H  0.34739291  0.06001208  0.30945719     0.13900
H603        H  0.30806772  0.05754345  0.33122620     0.13800
H604        H  0.30701421  0.06859293  0.29496278     0.12800
C605        C  0.29636200  0.01294819  0.11929863     0.19100
C606        C  0.30822205  0.02596445  0.11222926    -0.10000
C607        C  0.31116574  0.03894218  0.12255386    -0.10800
C608        C  0.30225239  0.03896354  0.13997672     0.20700
C609        C  0.29023572  0.02598349  0.14671627    -0.12900
C610        C  0.28729606  0.01301627  0.13640467    -0.11200
C611        C  0.30596402  0.05206041  0.15213936     0.01600
C612        C  0.30928245  0.06240809  0.16415785    -0.31200
C613        C  0.29395327  0.99946884  0.10999271     0.03000
C614        C  0.29230563  0.98808851  0.10332716    -0.32800
H615        H  0.31535503  0.02604261  0.09911152     0.14100
H616        H  0.32055199  0.04889114  0.11732953     0.13900
H617        H  0.28333395  0.02584720  0.16029924     0.13800
H618        H  0.27814405  0.00302199  0.14211100     0.12800
C619        C  0.58289378  0.97903388  0.15668812     0.19100
C620        C  0.56794543  0.97063924  0.15486924    -0.10000
C621        C  0.56101122  0.97141340  0.13513528    -0.10800
C622        C  0.56899896  0.98060072  0.11716227     0.20700
C623        C  0.58392586  0.98898774  0.11905004    -0.12900
C624        C  0.59083897  0.98821229  0.13871957    -0.11200
C625        C  0.56210659  0.98124576  0.09644617     0.01600
C626        C  0.55765855  0.98222536  0.07800191    -0.31200
C627        C  0.59019699  0.97834931  0.17686418     0.03000
C628        C  0.59701328  0.97841546  0.19325582    -0.32800
H629        H  0.56167664  0.96349363  0.16863820     0.14100
H630        H  0.54947328  0.96482299  0.13385164     0.13900
H631        H  0.59023395  0.99608032  0.10525007     0.13800
H632        H  0.60238935  0.99474953  0.13989289     0.12800
C633        C  0.50044772  0.98101407  0.00981169     0.19100
C634        C  0.48737240  0.96931096  0.01702119    -0.10000
C635        C  0.47443052  0.96840928  0.01076256    -0.10800
C636        C  0.47446691  0.97920246  0.99724788     0.20700
C637        C  0.48754212  0.99090546  0.99006045    -0.12900
C638        C  0.50047748  0.99180672  0.99631591    -0.11200
C639        C  0.46112832  0.97826723  0.99071448     0.01600
C640        C  0.44999294  0.97751023  0.98516650    -0.31200
C641        C  0.51381696  0.98196350  0.01618322     0.03000
C642        C  0.52510111  0.98291848  0.02131318    -0.32800
H643        H  0.48718194  0.96089029  0.02745185     0.14100
H644        H  0.46440965  0.95930261  0.01643921     0.13900
H645        H  0.48773751  0.99932229  0.97961237     0.13800
H646        H  0.51049530  0.00090912  0.99061786     0.12800
C647        C  0.50341353  0.98457082  0.49137808     0.19100
C648        C  0.49349543  0.97503992  0.50734896    -0.10000
C649        C  0.48145694  0.97605409  0.51315552    -0.10800
C650        C  0.47925557  0.98660232  0.50303246     0.20700
C651        C  0.48911514  0.99606864  0.48693178    -0.12900
C652        C  0.50115818  0.99505366  0.48112181    -0.11200
C653        C  0.46698919  0.98779661  0.50940678     0.01600
C654        C  0.45673084  0.98871579  0.51511384    -0.31200
C655        C  0.51596078  0.98369822  0.48571715     0.03000
C656        C  0.52651302  0.98303515  0.48107654    -0.32800
H657        H  0.49510711  0.96688551  0.51539162     0.14100
H658        H  0.47391382  0.96867200  0.52561770     0.13900
H659        H  0.48753554  0.00426719  0.47897798     0.13800
H660        H  0.50873933  0.00247965  0.46874365     0.12800
C661        C  0.58642968  0.98617887  0.34422621     0.19100
C662        C  0.59426886  0.99554314  0.36209334    -0.10000
C663        C  0.58736401  0.99573153  0.38225514    -0.10800
C664        C  0.57255861  0.98656450  0.38471058     0.20700
C665        C  0.56465490  0.97738888  0.36667844    -0.12900
C666        C  0.57156920  0.97720116  0.34648671    -0.11200
C667        C  0.56572645  0.98595221  0.40624859     0.01600
C668        C  0.56069337  0.98500322  0.42506376    -0.31200
C669        C  0.59375378  0.98542026  0.32404644     0.03000
C670        C  0.60019469  0.98465411  0.30768656    -0.32800
H671        H  0.60575564  0.00251230  0.36060086     0.14100
H672        H  0.59361434  0.00281426  0.39610094     0.13900
H673        H  0.55321881  0.97019014  0.36839965     0.13800
H674        H  0.56538008  0.96988793  0.33283184     0.12800
C675        C  0.58217494  0.96974612  0.52948384     0.19100
C676        C  0.59404035  0.98082933  0.54081291    -0.10000
C677        C  0.60410039  0.97808503  0.55118171    -0.10800
C678        C  0.60235485  0.96424379  0.55026345     0.20700
C679        C  0.59031990  0.95309508  0.53937978    -0.12900
C680        C  0.58026652  0.95583736  0.52902046    -0.11200
C681        C  0.61317762  0.96159534  0.55957012     0.01600
C682        C  0.62234799  0.95926957  0.56649275    -0.31200
C683        C  0.57264532  0.97286403  0.51672112     0.03000
C684        C  0.56542346  0.97549589  0.50411042    -0.32800
H685        H  0.59569865  0.99165137  0.54114127     0.14100
H686        H  0.61337430  0.98680614  0.55948567     0.13900
H687        H  0.58886433  0.94236096  0.53849147     0.13800
H688        H  0.57120464  0.94720276  0.52016819     0.12800
C689        C  0.65465903  0.89419587  0.45557117     0.19100
C690        C  0.66787301  0.90503195  0.46398996    -0.10000
C691        C  0.66843868  0.91268006  0.48375120    -0.10800
C692        C  0.65579069  0.90955354  0.49520643     0.20700
C693        C  0.64259496  0.89853098  0.48703305    -0.12900
C694        C  0.64202934  0.89088318  0.46726871    -0.11200
C695        C  0.65629390  0.91796195  0.51483176     0.01600
C696        C  0.65645918  0.92510796  0.53092804    -0.31200
C697        C  0.65398521  0.88723859  0.43410740     0.03000
C698        C  0.65332766  0.88239581  0.41520901    -0.32800
H699        H  0.67770248  0.90776868  0.45502133     0.14100
H700        H  0.67870220  0.92118782  0.48986016     0.13900
H701        H  0.63273669  0.89602347  0.49570105     0.13800
H702        H  0.63173771  0.88260533  0.46085592     0.12800
C703        C  0.63483838  0.92610628  0.28841755     0.19100
C704        C  0.64800952  0.92666196  0.28580822    -0.10000
C705        C  0.65050223  0.91660291  0.29696193    -0.10800
C706        C  0.63983214  0.90593052  0.31076369     0.20700
C707        C  0.62658055  0.90522802  0.31304893    -0.12900
C708        C  0.62408967  0.91527933  0.30190496    -0.11200
C709        C  0.64276761  0.89632707  0.32379205     0.01600
C710        C  0.64531075  0.88896891  0.33629871    -0.31200
C711        C  0.63258565  0.93704164  0.27828228     0.03000
C712        C  0.63072289  0.94648949  0.27101069    -0.32800
H713        H  0.65643137  0.93502356  0.27552900     0.14100
H714        H  0.66082877  0.91732654  0.29520349     0.13900
H715        H  0.61828803  0.89710096  0.32381182     0.13800
H716        H  0.61389316  0.91477941  0.30415999     0.12800
C717        C  0.65042275  0.90797397  0.68178133     0.19100
C718        C  0.63762221  0.89768531  0.69217415    -0.10000
C719        C  0.63798654  0.89082118  0.71228602    -0.10800
C720        C  0.65114876  0.89419342  0.72206008     0.20700
C721        C  0.66393727  0.90435148  0.71150461    -0.12900
C722        C  0.66357372  0.91120578  0.69141791    -0.11200
C723        C  0.65158270  0.88788787  0.74355153     0.01600
C724        C  0.65233956  0.88370696  0.76234338    -0.31200
C725        C  0.65015986  0.91562845  0.66173934     0.03000
C726        C  0.65061536  0.92268615  0.64538544    -0.32800
H727        H  0.62738918  0.89513206  0.68493322     0.14100
H728        H  0.62802989  0.88306777  0.72039014     0.13900
H729        H  0.67417644  0.90713378  0.71899032     0.13800
H730        H  0.67353857  0.91917634  0.68359067     0.12800
C731        C  0.59614009  0.99886634  0.97660997     0.19100
C732        C  0.59647832  0.99270836  0.95563148    -0.10000
C733        C  0.60962038  0.99584265  0.94598377    -0.10800
C734        C  0.62247029  0.00512107  0.95728431     0.20700
C735        C  0.62211597  0.01143005  0.97807679    -0.12900
C736        C  0.60900397  0.00831024  0.98769526    -0.11200
C737        C  0.63597969  0.00778204  0.94805242     0.01600
C738        C  0.64736587  0.00980454  0.94103542    -0.31200
C739        C  0.58271677  0.99500048  0.98760469     0.03000
C740        C  0.57234668  0.99192924  0.99929890    -0.32800
H741        H  0.58661282  0.98532745  0.94695041     0.14100
H742        H  0.60975318  0.99086886  0.92992504     0.13900
H743        H  0.63195726  0.01858327  0.98702173     0.13800
H744        H  0.60888492  0.01307200  0.00398355     0.12800
C745        C  0.67425043  0.94885755  0.88348516     0.19100
C746        C  0.66019423  0.93720211  0.88428703    -0.10000
C747        C  0.65691675  0.92395039  0.87468881    -0.10800
C748        C  0.66768985  0.92228947  0.86427781     0.20700
C749        C  0.68177859  0.93389901  0.86370498    -0.12900
C750        C  0.68505545  0.94715103  0.87329721    -0.11200
C751        C  0.66413921  0.90906949  0.85269321     0.01600
C752        C  0.66128171  0.89874858  0.84090429    -0.31200
C753        C  0.67745153  0.96268520  0.89231542     0.03000
C754        C  0.67991540  0.97435542  0.89892585    -0.32800
H755        H  0.65174101  0.93842524  0.89200177     0.14100
H756        H  0.64595904  0.91509982  0.87500702     0.13900
H757        H  0.69016314  0.93278384  0.85547338     0.13800
H758        H  0.69594453  0.95610960  0.87245589     0.12800
C759        C  0.74499919  0.06768975  0.05245931     0.19100
C760        C  0.74409506  0.07572773  0.03436912    -0.10000
C761        C  0.73696655  0.06882387  0.01423003    -0.10800
C762        C  0.73070530  0.05385431  0.01211873     0.20700
C763        C  0.73179016  0.04584443  0.03008060    -0.12900
C764        C  0.73891529  0.05274554  0.05021223    -0.11200
C765        C  0.72274732  0.04663581  0.99189684     0.01600
C766        C  0.71566569  0.04033777  0.97541474    -0.31200
C767        C  0.75124561  0.07458818  0.07387157     0.03000
C768        C  0.75522441  0.07985134  0.09254607    -0.32800
H769        H  0.74865267  0.08726904  0.03600163     0.14100
H770        H  0.73614261  0.07511184  0.00047764     0.13900
H771        H  0.72693961  0.03425715  0.02866024     0.13800
H772        H  0.73944143  0.04640759  0.06416719     0.12800
C773        C  0.71613732  0.05803383  0.19384320     0.19100
C774        C  0.71564515  0.04637610  0.20541824    -0.10000
C775        C  0.70277779  0.03568234  0.21502245    -0.10800
C776        C  0.69031078  0.03656367  0.21307994     0.20700
C777        C  0.69085545  0.04833852  0.20179949    -0.12900
C778        C  0.70372308  0.05903144  0.19219329    -0.11200
C779        C  0.67688297  0.02518004  0.22196172     0.01600
C780        C  0.66549483  0.01555663  0.22875246    -0.31200
C781        C  0.72903589  0.06829880  0.18213177     0.03000
C782        C  0.73927434  0.07591075  0.17033575    -0.32800
H783        H  0.72512754  0.04540060  0.20661167     0.14100
H784        H  0.70249781  0.02661866  0.22362250     0.13900
H785        H  0.68129034  0.04912856  0.20010472     0.13800
H786        H  0.70392171  0.06790734  0.18309135     0.12800
C787        C  0.72630713  0.05650839  0.82307582     0.19100
C788        C  0.74132537  0.06411187  0.82309743    -0.10000
C789        C  0.74889209  0.07123453  0.80331065    -0.10800
C790        C  0.74146934  0.07079837  0.78341814     0.20700
C791        C  0.72646060  0.06327310  0.78347286    -0.12900
C792        C  0.71890619  0.05615774  0.80322493    -0.11200
C793        C  0.74910161  0.07743853  0.76258881     0.01600
C794        C  0.75451162  0.08181373  0.74407790    -0.31200
C795        C  0.71847597  0.04882519  0.84320735     0.03000
C796        C  0.71186105  0.04211603  0.85983789    -0.32800
H797        H  0.74717009  0.06442355  0.83831970     0.14100
H798        H  0.76048987  0.07692863  0.80344858     0.13900
H799        H  0.72059816  0.06276981  0.76816156     0.13800
H800        H  0.70730634  0.05028303  0.80295538     0.12800
C801        C  0.71075972  0.01760993  0.62238413     0.19100
C802        C  0.72509523  0.02103347  0.62366266    -0.10000
C803        C  0.73543441  0.03415097  0.63325804    -0.10800
C804        C  0.73149399  0.04392307  0.64158344     0.20700
C805        C  0.71721262  0.04059832  0.63991880    -0.12900
C806        C  0.70688982  0.02750114  0.63034671    -0.11200
C807        C  0.74175808  0.05682744  0.65339966     0.01600
C808        C  0.74939844  0.06699370  0.66538927    -0.31200
C809        C  0.69989609  0.00375620  0.61382871     0.03000
C810        C  0.69043795  0.99208940  0.60756530    -0.32800
H811        H  0.72822308  0.01346422  0.61764430     0.14100
H812        H  0.74641122  0.03653155  0.63462105     0.13900
H813        H  0.71399929  0.04799482  0.64647082     0.13800
H814        H  0.69584733  0.02497458  0.62954443     0.12800
C815        C  0.23781118  0.31382716  0.44596847     0.19100
C816        C  0.24564818  0.30669263  0.44754198    -0.10000
C817        C  0.25254829  0.30704536  0.46796152    -0.10800
C818        C  0.25168132  0.31454816  0.48695499     0.20700
C819        C  0.24385567  0.32169796  0.48539388    -0.12900
C820        C  0.23694851  0.32134521  0.46495164    -0.11200
C821        C  0.25894775  0.31498957  0.50788141     0.01600
C822        C  0.26532599  0.31526873  0.52499068    -0.31200
C823        C  0.23109835  0.31380258  0.42464593     0.03000
C824        C  0.22641647  0.31412404  0.40605779    -0.32800
H825        H  0.24649117  0.30092984  0.43295179     0.14100
H826        H  0.25860169  0.30151845  0.46891154     0.13900
H827        H  0.24314165  0.32757955  0.49992109     0.13800
H828        H  0.23101446  0.32699026  0.46391008     0.12800
C829        C  0.23508614  0.31384732  0.71870410     0.19100
C830        C  0.24079718  0.30475996  0.71589010    -0.10000
C831        C  0.24824218  0.30542773  0.69590810    -0.10800
C832        C  0.25004089  0.31519407  0.67858097     0.20700
C833        C  0.24416995  0.32416004  0.68123481    -0.12900
C834        C  0.23671420  0.32349402  0.70125817    -0.11200
C835        C  0.25812789  0.31613351  0.65835075     0.01600
C836        C  0.26507338  0.31663181  0.64181354    -0.31200
C837        C  0.22816192  0.31362686  0.73993842     0.03000
C838        C  0.22325365  0.31315683  0.75869530    -0.32800
H839        H  0.23965953  0.29729325  0.72927744     0.14100
H840        H  0.25272479  0.29844082  0.69407591     0.13900
H841        H  0.24548637  0.33175503  0.66796057     0.13800
H842        H  0.23239500  0.33061013  0.70325460     0.12800
C843        C  0.26427507  0.29095398  0.88386572     0.19100
C844        C  0.25846711  0.28462321  0.86267453    -0.10000
C845        C  0.24865977  0.28749016  0.85176497    -0.10800
C846        C  0.24457883  0.29670295  0.86196664     0.20700
C847        C  0.25010623  0.30275700  0.88342977    -0.12900
C848        C  0.25992857  0.29988293  0.89436008    -0.11200
C849        C  0.23543603  0.30055579  0.84965726     0.01600
C850        C  0.22851923  0.30383707  0.83748124    -0.31200
C851        C  0.27529646  0.28894853  0.89405000     0.03000
C852        C  0.28502652  0.28760299  0.90124629    -0.32800
H853        H  0.26176995  0.27774248  0.85434399     0.14100
H854        H  0.24451264  0.28278831  0.83513742     0.13900
H855        H  0.24708051  0.30993763  0.89145504     0.13800
H856        H  0.26437293  0.30487655  0.91070804     0.12800
C857        C  0.31943338  0.13448501  0.17507396     0.19100
C858        C  0.31821577  0.14295222  0.19220991    -0.10000
C859        C  0.31885302  0.15592210  0.18654591    -0.10800
C860        C  0.32070743  0.16047944  0.16371925     0.20700
C861        C  0.32194297  0.15201754  0.14660727    -0.12900
C862        C  0.32130642  0.13905786  0.15226702    -0.11200
C863        C  0.32145533  0.17386233  0.15781656     0.01600
C864        C  0.32230562  0.18512411  0.15254107    -0.31200
C865        C  0.31877545  0.12112780  0.18083985     0.03000
C866        C  0.31826737  0.10994707  0.18554843    -0.32800
H867        H  0.31677961  0.13953382  0.20990767     0.14100
H868        H  0.31791331  0.16238673  0.19993092     0.13900
H869        H  0.32340785  0.15544258  0.12891112     0.13800
H870        H  0.32227555  0.13261241  0.13887901     0.12800
C871        C  0.31934265  0.24194003  0.01486346     0.19100
C872        C  0.33175591  0.24149431  0.02018991    -0.10000
C873        C  0.33221864  0.23435231  0.03987258    -0.10800
C874        C  0.32025928  0.22759861  0.05430919     0.20700
C875        C  0.30779895  0.22792457  0.04886530    -0.12900
C876        C  0.30733684  0.23506864  0.02918537    -0.11200
C877        C  0.32108334  0.22121239  0.07546539     0.01600
C878        C  0.32203847  0.21707951  0.09418353    -0.31200
C879        C  0.31907274  0.24974653  0.99504114     0.03000
C880        C  0.31915118  0.25659880  0.97866005    -0.32800
H881        H  0.34112197  0.24681448  0.00929217     0.14100
H882        H  0.34195864  0.23429646  0.04402186     0.13900
H883        H  0.29853670  0.22286466  0.06001859     0.13800
H884        H  0.29770028  0.23538643  0.02529473     0.12800
C885        C  0.32852180  0.24861294  0.82510106     0.19100
C886        C  0.33999505  0.25586990  0.80983960    -0.10000
C887        C  0.34048724  0.24914213  0.78958000    -0.10800
C888        C  0.32951750  0.23511362  0.78448155     0.20700
C889        C  0.31820248  0.22777804  0.79995688    -0.12900
C890        C  0.31770914  0.23449802  0.82018689    -0.11200
C891        C  0.32929686  0.22860421  0.76275306     0.01600
C892        C  0.32829517  0.22350704  0.74394757    -0.31200
C893        C  0.32754335  0.25575442  0.84538892     0.03000
C894        C  0.32631219  0.26164001  0.86215272    -0.32800
H895        H  0.34841418  0.26679229  0.81340736     0.14100
H896        H  0.34925027  0.25497243  0.77770274     0.13900
H897        H  0.30961090  0.21697446  0.79616551     0.13800
H898        H  0.30877239  0.22877660  0.83180477     0.12800
C899        C  0.31282465  0.24485996  0.63912507     0.13700
C900        C  0.32368099  0.25841319  0.63171086    -0.10000
C901        C  0.32017052  0.26787769  0.62098225    -0.10800
C902        C  0.30578553  0.26385305  0.61761859     0.20700
C903        C  0.29494557  0.25017923  0.62458403    -0.12900
C904        C  0.29845489  0.24071721  0.63530070    -0.11200
C905        C  0.30215402  0.27404244  0.60829279     0.01600
C906        C  0.29928225  0.28296370  0.60178823    -0.31200
C907        C  0.31633255  0.23567659  0.65221009     0.03000
C908        C  0.31894201  0.22845673  0.66494715    -0.32800
H909        H  0.33482641  0.26179579  0.63472080     0.14100
H910        H  0.32865165  0.27844370  0.61579080     0.13900
H911        H  0.28378767  0.24696146  0.62220373     0.13800
H912        H  0.28996087  0.23032024  0.64110869     0.12800
C913        C  0.32134021  0.13692387  0.66723521     0.19100
C914        C  0.31463516  0.14227073  0.65304563    -0.10000
C915        C  0.31499326  0.15514211  0.65862874    -0.10800
C916        C  0.32205971  0.16275889  0.67844026     0.20700
C917        C  0.32861189  0.15731562  0.69276459    -0.12900
C918        C  0.32825295  0.14444919  0.68718465    -0.11200
C919        C  0.32271692  0.17620239  0.68394791     0.01600
C920        C  0.32327126  0.18745780  0.68851427    -0.31200
C921        C  0.32159377  0.12403823  0.66095129     0.03000
C922        C  0.32238709  0.11359476  0.65552586    -0.32800
H923        H  0.30927469  0.13658225  0.63755788     0.14100
H924        H  0.30986846  0.15921006  0.64741371     0.13900
H925        H  0.33409501  0.16307417  0.70813679     0.13800
H926        H  0.33349920  0.14045747  0.69828670     0.12800
C927        C  0.28862272  0.33464084  0.28161057     0.19100
C928        C  0.28308094  0.34391131  0.27950044    -0.10000
C929        C  0.26997415  0.34034342  0.28973792    -0.10800
C930        C  0.26234675  0.32748014  0.30209021     0.20700
C931        C  0.26780454  0.31812858  0.30389719    -0.12900
C932        C  0.28088931  0.32169105  0.29367951    -0.11200
C933        C  0.24947144  0.32429150  0.31428140     0.01600
C934        C  0.23946796  0.32168962  0.32657356    -0.31200
C935        C  0.30251777  0.33864066  0.27240913     0.03000
C936        C  0.31434677  0.34168816  0.26606463    -0.32800
H937        H  0.28900008  0.35399093  0.27031876     0.14100
H938        H  0.26593477  0.34772582  0.28840213     0.13900
H939        H  0.26208423  0.30822333  0.31358236     0.13800
H940        H  0.28509909  0.31447656  0.29554224     0.12800
C941        C  0.33813112  0.25686254  0.19473995     0.19100
C942        C  0.34880221  0.26989428  0.18541391    -0.10000
C943        C  0.35153546  0.28299066  0.19489922    -0.10800
C944        C  0.34361283  0.28314517  0.21377494     0.20700
C945        C  0.33303354  0.27011153  0.22328532    -0.12900
C946        C  0.33029002  0.25698688  0.21377222    -0.11200
C947        C  0.34614274  0.29670295  0.22287380     0.01600
C948        C  0.34842155  0.30832294  0.22945333    -0.31200
C949        C  0.33470136  0.24350697  0.18373088     0.03000
C950        C  0.33180633  0.23305919  0.17224299    -0.32800
H951        H  0.35484358  0.26993136  0.17057624     0.14100
H952        H  0.35969756  0.29299156  0.18734391     0.13900
H953        H  0.32680339  0.27010137  0.23782997     0.13800
H954        H  0.32192915  0.24697767  0.22099971     0.12800
C955        C  0.39626543  0.38863540  0.34458428     0.19100
C956        C  0.40843721  0.38838622  0.35220995    -0.10000
C957        C  0.41514492  0.39531459  0.37263579    -0.10800
C958        C  0.40972144  0.40253983  0.38551972     0.20700
C959        C  0.39768735  0.40296186  0.37769434    -0.12900
C960        C  0.39098964  0.39604326  0.35730625    -0.11200
C961        C  0.41596327  0.40889037  0.40731127     0.01600
C962        C  0.42016227  0.41358591  0.42626250    -0.31200
C963        C  0.38889864  0.38096859  0.32413728     0.03000
C964        C  0.38224784  0.37441242  0.30742479    -0.32800
H965        H  0.41261215  0.38268067  0.34255225     0.14100
H966        H  0.42439983  0.39484908  0.37854510     0.13900
H967        H  0.39334681  0.40844670  0.38753935     0.13800
H968        H  0.38158213  0.39630139  0.35163075     0.12800
C969        C  0.35785869  0.37176369  0.55200297     0.19100
C970        C  0.36854870  0.36812288  0.54930191    -0.10000
C971        C  0.38161558  0.37783996  0.53904011    -0.10800
C972        C  0.38407964  0.39126792  0.53142969     0.20700
C973        C  0.37352892  0.39505450  0.53465415    -0.12900
C974        C  0.36045581  0.38533241  0.54491026    -0.11200
C975        C  0.39684330  0.40060149  0.51856894     0.01600
C976        C  0.40671687  0.40779140  0.50585095    -0.31200
C977        C  0.34398036  0.36125261  0.56075556     0.03000
C978        C  0.33225249  0.35193678  0.56685883    -0.32800
H979        H  0.36664974  0.35764338  0.55460870     0.14100
H980        H  0.38962938  0.37473036  0.53648229     0.13900
H981        H  0.37525387  0.40535213  0.52867858     0.13800
H982        H  0.35226065  0.38825474  0.54679433     0.12800
C983        C  0.41153753  0.40663810  0.11626456     0.19100
C984        C  0.39671785  0.40103407  0.11765688    -0.10000
C985        C  0.38927692  0.39412199  0.13757508    -0.10800
C986        C  0.39660471  0.39275723  0.15624119     0.20700
C987        C  0.41147174  0.39855086  0.15501172    -0.12900
C988        C  0.41892812  0.40547235  0.13504528    -0.11200
C989        C  0.38874271  0.38491168  0.17621478     0.01600
C990        C  0.38186786  0.37784159  0.19239022    -0.31200
C991        C  0.41884735  0.41272867  0.09502501     0.03000
C992        C  0.42370340  0.41655155  0.07607777    -0.32800
H993        H  0.39087554  0.40177539  0.10318699     0.14100
H994        H  0.37778452  0.38963889  0.13828330     0.13900
H995        H  0.41724347  0.39751046  0.16931312     0.13800
H996        H  0.43036922  0.40967044  0.13410862     0.12800
C997        C  0.39565961  0.37708888  0.97585293     0.19100
C998        C  0.38277828  0.37566033  0.96788500    -0.10000
C999        C  0.37210010  0.36247412  0.95903383    -0.10800
C1000       C  0.37423866  0.35064297  0.95814265     0.20700
C1001       C  0.38718425  0.35212738  0.96586599    -0.12900
C1002       C  0.39785463  0.36530361  0.97470499    -0.11200
C1003       C  0.36306937  0.33690527  0.94981028     0.01600
C1004       C  0.35376902  0.32525991  0.94323714    -0.31200
C1005       C  0.40617542  0.39025158  0.98673562     0.03000
C1006       C  0.41443719  0.40054611  0.99795263    -0.32800
H1007       H  0.38089450  0.38464776  0.96888411     0.14100
H1008       H  0.36212419  0.36145240  0.95317409     0.13900
H1009       H  0.38895256  0.34305496  0.96532930     0.13800
H1010       H  0.40770454  0.36622762  0.98101332     0.12800
C1011       C  0.74746344  0.65417881  0.55947681     0.19100
C1012       C  0.74740800  0.64566107  0.54124924    -0.10000
C1013       C  0.74141351  0.64600855  0.52023567    -0.10800
C1014       C  0.73544877  0.65486699  0.51741097     0.20700
C1015       C  0.73576985  0.66358219  0.53550992    -0.12900
C1016       C  0.74175283  0.66323368  0.55648879    -0.11200
C1017       C  0.72832012  0.65451338  0.49645313     0.01600
C1018       C  0.72164654  0.65404263  0.47965612    -0.31200
C1019       C  0.75242644  0.65291936  0.58167830     0.03000
C1020       C  0.75539379  0.65126153  0.60085143    -0.32800
H1021       H  0.75170256  0.63854031  0.54343317     0.14100
H1022       H  0.74116507  0.63917435  0.50638638     0.13900
H1023       H  0.73112970  0.67041744  0.53355015     0.13800
H1024       H  0.74164161  0.66977971  0.57051739     0.12800
C1025       C  0.73511600  0.65314128  0.32647625     0.19100
C1026       C  0.74285245  0.66653627  0.31561897    -0.10000
C1027       C  0.74991094  0.66773006  0.29496842    -0.10800
C1028       C  0.74928678  0.65553694  0.28506884     0.20700
C1029       C  0.74173441  0.64217450  0.29609533    -0.12900
C1030       C  0.73466724  0.64097912  0.31676955    -0.11200
C1031       C  0.75570902  0.65663024  0.26301708     0.01600
C1032       C  0.76033835  0.65773632  0.24388859    -0.31200
C1033       C  0.72722620  0.65185199  0.34706634     0.03000
C1034       C  0.72041843  0.65123316  0.36382698    -0.32800
H1035       H  0.74323617  0.67600238  0.32292754     0.14100
H1036       H  0.75564160  0.67809796  0.28653186     0.13900
H1037       H  0.74110794  0.63265871  0.28852799     0.13800
H1038       H  0.72868255  0.63055945  0.32497758     0.12800
C1039       C  0.71397921  0.63297546  0.70093902     0.19100
C1040       C  0.70314308  0.61868783  0.70458638    -0.10000
C1041       C  0.69001210  0.61572518  0.71396848    -0.10800
C1042       C  0.68764580  0.62703334  0.71971562     0.20700
C1043       C  0.69858489  0.64132657  0.71650337    -0.12900
C1044       C  0.71171341  0.64428834  0.70712800    -0.11200
C1045       C  0.67376375  0.62397432  0.72765151     0.01600
C1046       C  0.66198299  0.62155546  0.73309771    -0.31200
C1047       C  0.72696662  0.63602226  0.68928438     0.03000
C1048       C  0.73728430  0.63877564  0.67769744    -0.32800
H1049       H  0.70472254  0.60984989  0.69969276     0.14100
H1050       H  0.68160939  0.60463269  0.71626385     0.13900
H1051       H  0.69685626  0.65015835  0.72076775     0.13800
H1052       H  0.71996337  0.65537396  0.70421099     0.12800
C1053       C  0.58180297  0.57662626  0.84504494     0.19100
C1054       C  0.58843899  0.57198646  0.86068751    -0.10000
C1055       C  0.58174605  0.56583927  0.88147707    -0.10800
C1056       C  0.56837748  0.56428853  0.88670083     0.20700
C1057       C  0.56162583  0.56869165  0.87088013    -0.12900
C1058       C  0.56832087  0.57484196  0.85008923    -0.11200
C1059       C  0.56204546  0.55908422  0.90884304     0.01600
C1060       C  0.55734879  0.55581951  0.92798229    -0.31200
C1061       C  0.58909997  0.58375009  0.82430322     0.03000
C1062       C  0.59556958  0.59014685  0.80741079    -0.32800
H1063       H  0.59888434  0.57335773  0.85699251     0.14100
H1064       H  0.58711123  0.56256558  0.89364545     0.13900
H1065       H  0.55133575  0.56763515  0.87480797     0.13800
H1066       H  0.56311384  0.57843400  0.83815171     0.12800
C1067       C  0.47807991  0.47272122  0.00629877     0.19100
C1068       C  0.48505336  0.48268448  0.02394190    -0.10000
C1069       C  0.49697988  0.49617005  0.01912979    -0.10800
C1070       C  0.50201238  0.49978102  0.99663446     0.20700
C1071       C  0.49505557  0.48980962  0.97899168    -0.12900
C1072       C  0.48312619  0.47632138  0.98380453    -0.11200
C1073       C  0.51429827  0.51367109  0.99160941     0.01600
C1074       C  0.52458292  0.52516967  0.98680168    -0.31200
C1075       C  0.46571263  0.45888909  0.01133389     0.03000
C1076       C  0.45533468  0.44748897  0.01627393    -0.32800
H1077       H  0.48125565  0.48003690  0.04139979     0.14100
H1078       H  0.50225920  0.50377032  0.03292241     0.13900
H1079       H  0.49884444  0.49246649  0.96153098     0.13800
H1080       H  0.47783461  0.46872702  0.97000961     0.12800
C1081       C  0.58339678  0.57714478  0.65076576     0.19100
C1082       C  0.57091293  0.56358224  0.65122390    -0.10000
C1083       C  0.56449795  0.55655373  0.63073273    -0.10800
C1084       C  0.57055733  0.56308840  0.60975873     0.20700
C1085       C  0.58299306  0.57667055  0.60935305    -0.12900
C1086       C  0.58939293  0.58367878  0.62979067    -0.11200
C1087       C  0.56438806  0.55584577  0.58853203     0.01600
C1088       C  0.56058938  0.55072058  0.56973791    -0.31200
C1089       C  0.59020997  0.58435622  0.67170275     0.03000
C1090       C  0.59637046  0.59073966  0.68877760    -0.32800
H1091       H  0.56620374  0.55842925  0.66736939     0.14100
H1092       H  0.55491276  0.54603013  0.63123725     0.13900
H1093       H  0.58779608  0.58179491  0.59322898     0.13800
H1094       H  0.59905122  0.59414798  0.62924014     0.12800
C1095       C  0.62851126  0.59548005  0.45389857     0.19100
C1096       C  0.62267392  0.58089431  0.44819449    -0.10000
C1097       C  0.60925841  0.57060321  0.45683347    -0.10800
C1098       C  0.60163751  0.57487593  0.47116032     0.20700
C1099       C  0.60743897  0.58946689  0.47664691    -0.12900
C1100       C  0.62081256  0.59972274  0.46804664    -0.11200
C1101       C  0.58828188  0.56437166  0.48143009     0.01600
C1102       C  0.57771374  0.55656539  0.49242213    -0.31200
C1103       C  0.64247931  0.60615811  0.44573635     0.03000
C1104       C  0.65415209  0.61569560  0.43987764    -0.32800
H1105       H  0.62853974  0.57747438  0.43730761     0.14100
H1106       H  0.60493430  0.55933953  0.45261401     0.13900
H1107       H  0.60170980  0.59289245  0.48784868     0.13800
H1108       H  0.62521910  0.61094873  0.47262656     0.12800
C1109       C  0.47859695  0.46968196  0.49192946     0.19100
C1110       C  0.49058442  0.47319674  0.47824194    -0.10000
C1111       C  0.50374257  0.48555010  0.48296583    -0.10800
C1112       C  0.50499173  0.49446667  0.50140116     0.20700
C1113       C  0.49300672  0.49095218  0.51508762    -0.12900
C1114       C  0.47985189  0.47860182  0.51036551    -0.11200
C1115       C  0.51856871  0.50711742  0.50644884     0.01600
C1116       C  0.52987726  0.51762201  0.51123517    -0.31200
C1117       C  0.46500430  0.45702002  0.48694667     0.03000
C1118       C  0.45358605  0.44652915  0.48257151    -0.32800
H1119       H  0.48975544  0.46640183  0.46392830     0.14100
H1120       H  0.51292897  0.48813516  0.47227923     0.13900
H1121       H  0.49383627  0.49774356  0.52940834     0.13800
H1122       H  0.47066983  0.47601742  0.52106282     0.12800
C1123       C  0.73589792  0.67142495  0.14110464     0.19100
C1124       C  0.73700311  0.68494280  0.14327486    -0.10000
C1125       C  0.72677309  0.68749666  0.13316985    -0.10800
C1126       C  0.71538223  0.67654051  0.12085552     0.20700
C1127       C  0.71441154  0.66309676  0.11833486    -0.12900
C1128       C  0.72464859  0.66054013  0.12845221    -0.11200
C1129       C  0.70437424  0.67890657  0.11172875     0.01600
C1130       C  0.69492017  0.68082788  0.10503057    -0.31200
C1131       C  0.74567233  0.66845056  0.15330325     0.03000
C1132       C  0.75322369  0.66602651  0.16541930    -0.32800
H1133       H  0.74558589  0.69339497  0.15318830     0.14100
H1134       H  0.72759164  0.69790804  0.13531966     0.13900
H1135       H  0.70560988  0.65452739  0.10893672     0.13800
H1136       H  0.72362121  0.65000919  0.12683222     0.12800
C1137       C  0.60372543  0.62126829  0.04963549     0.19100
C1138       C  0.60755951  0.61239047  0.03768788    -0.10000
C1139       C  0.59701353  0.59967999  0.02746622    -0.10800
C1140       C  0.58255645  0.59574826  0.02912567     0.20700
C1141       C  0.57868716  0.60454070  0.04128531    -0.12900
C1142       C  0.58925435  0.61727513  0.05153264    -0.11200
C1143       C  0.57189586  0.58310321  0.01728119     0.01600
C1144       C  0.56388818  0.57295929  0.00556966    -0.31200
C1145       C  0.61471945  0.63470568  0.05910873     0.03000
C1146       C  0.62434534  0.64610213  0.06586894    -0.32800
H1147       H  0.61871094  0.61539596  0.03600238     0.14100
H1148       H  0.60014864  0.59303013  0.01797277     0.13900
H1149       H  0.56755670  0.60166998  0.04254932     0.13800
H1150       H  0.58616796  0.62409077  0.06063475     0.12800
C1151       C  0.65876299  0.73737941  0.94708295     0.19100
C1152       C  0.64731642  0.73087555  0.96252317    -0.10000
C1153       C  0.64875632  0.72482123  0.98276569    -0.10800
C1154       C  0.66163922  0.72521737  0.98765330     0.20700
C1155       C  0.67317038  0.73191661  0.97238507    -0.12900
C1156       C  0.67172917  0.73797878  0.95212154    -0.11200
C1157       C  0.66275736  0.71825681  0.00790401     0.01600
C1158       C  0.66292680  0.71187724  0.02472823    -0.31200
C1159       C  0.65689236  0.74263473  0.92550965     0.03000
C1160       C  0.65485849  0.74598903  0.90684028    -0.32800
H1161       H  0.63721261  0.73026158  0.95872623     0.14100
H1162       H  0.63975823  0.71962858  0.99441821     0.13900
H1163       H  0.68316528  0.73224557  0.97596142     0.13800
H1164       H  0.68061590  0.74289583  0.94022167     0.12800
C1165       C  0.63170004  0.68136751  0.78197440     0.19100
C1166       C  0.62048371  0.68340710  0.78925092    -0.10000
C1167       C  0.62347211  0.69621033  0.80020339    -0.10800
C1168       C  0.63769094  0.70704121  0.80390995     0.20700
C1169       C  0.64891540  0.70507277  0.79638331    -0.12900
C1170       C  0.64592582  0.69226575  0.78542646    -0.11200
C1171       C  0.64073344  0.71974210  0.81668917     0.01600
C1172       C  0.64324074  0.72975519  0.82901450    -0.31200
C1173       C  0.62862437  0.66778560  0.77226273     0.03000
C1174       C  0.62625863  0.65615728  0.76563257    -0.32800
H1175       H  0.60944861  0.67500309  0.78685061     0.14100
H1176       H  0.61471053  0.69755386  0.80615207     0.13900
H1177       H  0.65994953  0.71331109  0.79935890     0.13800
H1178       H  0.65468339  0.69075150  0.78004851     0.12800
C1179       C  0.65141913  0.82666604  0.83028781     0.19100
C1180       C  0.65284541  0.81835565  0.81311069    -0.10000
C1181       C  0.65189987  0.80521915  0.81854040    -0.10800
C1182       C  0.64952624  0.80030364  0.84118319     0.20700
C1183       C  0.64804821  0.80858493  0.85837224    -0.12900
C1184       C  0.64899332  0.82173263  0.85293745    -0.11200
C1185       C  0.64888487  0.78691610  0.84676454     0.01600
C1186       C  0.64868323  0.77585234  0.85129563    -0.31200
C1187       C  0.65245598  0.84022776  0.82463064     0.03000
C1188       C  0.65332516  0.85154869  0.81965150    -0.32800
H1189       H  0.65472094  0.82204553  0.79554330     0.14100
H1190       H  0.65308413  0.79893190  0.80511061     0.13900
H1191       H  0.64623395  0.80491603  0.87595071     0.13800
H1192       H  0.64787002  0.82805478  0.86637292     0.12800
C1193       C  0.65955868  0.72557566  0.18036168     0.19100
C1194       C  0.67064535  0.73981637  0.18347716    -0.10000
C1195       C  0.67174604  0.74698373  0.20403880    -0.10800
C1196       C  0.66175162  0.73993826  0.22154424     0.20700
C1197       C  0.65054672  0.72577401  0.21828212    -0.12900
C1198       C  0.64944879  0.71861131  0.19773847    -0.11200
C1199       C  0.66340160  0.74686818  0.24331825     0.01600
C1200       C  0.66484821  0.75176297  0.26233177    -0.31200
C1201       C  0.65893083  0.71789363  0.15980834     0.03000
C1202       C  0.65879160  0.71127113  0.14305448    -0.32800
H1203       H  0.67855990  0.74527906  0.17018794     0.14100
H1204       H  0.68050754  0.75789840  0.20643385     0.13900
H1205       H  0.64281695  0.72018910  0.23176222     0.13800
H1206       H  0.64087538  0.70758132  0.19555612     0.12800
C1207       C  0.68324890  0.70588441  0.38538294     0.19100
C1208       C  0.66934828  0.70377378  0.38517668    -0.10000
C1209       C  0.66669272  0.71396064  0.37489441    -0.10800
C1210       C  0.67793252  0.72632138  0.36479479     0.20700
C1211       C  0.69186645  0.72853473  0.36530856    -0.12900
C1212       C  0.69452039  0.71835040  0.37558032    -0.11200
C1213       C  0.67507118  0.73624546  0.35258739     0.01600
C1214       C  0.67285295  0.74405228  0.34061525    -0.31200
C1215       C  0.68583048  0.69498691  0.39473897     0.03000
C1216       C  0.68789948  0.68560465  0.40164846    -0.32800
H1217       H  0.66053724  0.69414774  0.39260364     0.14100
H1218       H  0.65585634  0.71206993  0.37443994     0.13900
H1219       H  0.70062089  0.73798849  0.35739075     0.13800
H1220       H  0.70529933  0.72007325  0.37553198     0.12800
C1221       C  0.66314918  0.80643789  0.33280165     0.19100
C1222       C  0.65735933  0.81195428  0.31707666    -0.10000
C1223       C  0.65546864  0.82350376  0.32318490    -0.10800
C1224       C  0.65935658  0.82960800  0.34505980     0.20700
C1225       C  0.66513426  0.82408071  0.36078320    -0.12900
C1226       C  0.66702452  0.81253291  0.35467571    -0.11200
C1227       C  0.65738904  0.84149158  0.35140656     0.01600
C1228       C  0.65569264  0.85139088  0.35683479    -0.31200
C1229       C  0.66497970  0.79446018  0.32655898     0.03000
C1230       C  0.66625088  0.78429711  0.32119063    -0.32800
H1231       H  0.65429216  0.80731872  0.30013020     0.14100
H1232       H  0.65097322  0.82765909  0.31087990     0.13900
H1233       H  0.66816377  0.82868714  0.37775203     0.13800
H1234       H  0.67148146  0.80835035  0.36700247     0.12800
C1235       C  0.98471791  0.57665604  0.34822838     0.19100
C1236       C  0.98063389  0.56202693  0.34748076    -0.10000
C1237       C  0.98116960  0.55502776  0.36733157    -0.10800
C1238       C  0.98579800  0.56264880  0.38797197     0.20700
C1239       C  0.98981782  0.57724686  0.38868815    -0.12900
C1240       C  0.98928358  0.58422569  0.36889481    -0.11200
C1241       C  0.98659532  0.55571708  0.40852195     0.01600
C1242       C  0.98785337  0.55136203  0.42686499    -0.31200
C1243       C  0.98449676  0.58404470  0.32783386     0.03000
C1244       C  0.98480139  0.59078546  0.31115143    -0.32800
H1245       H  0.97711031  0.55607195  0.33157755     0.14100
H1246       H  0.97804164  0.54373997  0.36657148     0.13900
H1247       H  0.99342043  0.58324994  0.40454501     0.13800
H1248       H  0.99249283  0.59553629  0.36968181     0.12800
C1249       C  0.99369667  0.56696209  0.11668256     0.19100
C1250       C  0.98214185  0.55995091  0.13184026    -0.10000
C1251       C  0.98179987  0.56679228  0.15202040    -0.10800
C1252       C  0.99299585  0.58068946  0.15712407     0.20700
C1253       C  0.00462083  0.58764354  0.14208184    -0.12900
C1254       C  0.00496312  0.58080198  0.12190351    -0.11200
C1255       C  0.99234171  0.58796507  0.17741258     0.01600
C1256       C  0.99156471  0.59415543  0.19410289    -0.31200
C1257       C  0.99356886  0.56036332  0.09514838     0.03000
C1258       C  0.99298575  0.55555064  0.07627320    -0.32800
H1259       H  0.97330725  0.54930703  0.12789034     0.14100
H1260       H  0.97273048  0.56133331  0.16347629     0.13900
H1261       H  0.01331070  0.59840982  0.14579940     0.13800
H1262       H  0.01388824  0.58638361  0.11021724     0.12800
C1263       C  0.00480080  0.58976019  0.52926228     0.19100
C1264       C  0.99347368  0.59131905  0.53754226    -0.10000
C1265       C  0.99620987  0.60435349  0.54733444    -0.10800
C1266       C  0.01028574  0.61590663  0.54886657     0.20700
C1267       C  0.02164303  0.61427048  0.54097057    -0.12900
C1268       C  0.01890521  0.60122960  0.53117143    -0.11200
C1269       C  0.01298084  0.62962521  0.55744565     0.01600
C1270       C  0.01506700  0.64124280  0.56363654    -0.31200
C1271       C  0.00184040  0.57685472  0.51717306     0.03000
C1272       C  0.99910638  0.56668616  0.50506532    -0.32800
H1273       H  0.98251561  0.58258184  0.53594904     0.14100
H1274       H  0.98733947  0.60551945  0.55326795     0.13900
H1275       H  0.03256386  0.62315468  0.54195511     0.13800
H1276       H  0.02773713  0.60020272  0.52462085     0.12800
C1277       C  0.06022065  0.72442930  0.48822726     0.19100
C1278       C  0.05307780  0.72803469  0.47190151    -0.10000
C1279       C  0.06016780  0.73534060  0.45197971    -0.10800
C1280       C  0.07444768  0.73909769  0.44827708     0.20700
C1281       C  0.08168662  0.73572978  0.46479136    -0.12900
C1282       C  0.07458927  0.72841796  0.48473950    -0.11200
C1283       C  0.08125329  0.74542393  0.42682526     0.01600
C1284       C  0.08609930  0.74947828  0.40793742    -0.31200
C1285       C  0.05264129  0.71623861  0.50813060     0.03000
C1286       C  0.04604113  0.70910646  0.52443602    -0.32800
H1287       H  0.04196567  0.72498333  0.47439089     0.14100
H1288       H  0.05443021  0.73779011  0.43925647     0.13900
H1289       H  0.09269545  0.73848565  0.46203423     0.13800
H1290       H  0.08021457  0.72566442  0.49722758     0.12800
C1291       C  0.04126492  0.68522981  0.28589089     0.19100
C1292       C  0.03865014  0.69674448  0.28715783    -0.10000
C1293       C  0.04891271  0.70989782  0.29669376    -0.10800
C1294       C  0.06184295  0.71160190  0.30497406     0.20700
C1295       C  0.06457849  0.70018895  0.30322774    -0.12900
C1296       C  0.05432482  0.68704699  0.29370105    -0.11200
C1297       C  0.07174956  0.72455487  0.31698856     0.01600
C1298       C  0.07941013  0.73461677  0.32911385    -0.31200
C1299       C  0.03032818  0.67135728  0.27765328     0.03000
C1300       C  0.02111236  0.65951691  0.27169323    -0.32800
H1301       H  0.02857353  0.69545536  0.28124856     0.14100
H1302       H  0.04662197  0.71859952  0.29812904     0.13900
H1303       H  0.07447652  0.70133028  0.30974849     0.13800
H1304       H  0.05644839  0.67821184  0.29288838     0.12800
C1305       C  0.16843055  0.83146499  0.33053030     0.19100
C1306       C  0.16161756  0.82965408  0.35168160    -0.10000
C1307       C  0.14923706  0.81661861  0.35688031    -0.10800
C1308       C  0.14360381  0.80532730  0.34095317     0.20700
C1309       C  0.15047700  0.80710213  0.31986238    -0.12900
C1310       C  0.16285923  0.82013921  0.31466337    -0.11200
C1311       C  0.13072777  0.79199096  0.34619649     0.01600
C1312       C  0.11992503  0.78089304  0.35080020    -0.31200
C1313       C  0.18100990  0.84498047  0.32498185     0.03000
C1314       C  0.19146754  0.85626431  0.31993529    -0.32800
H1315       H  0.16582785  0.83833081  0.36408161     0.14100
H1316       H  0.14402491  0.81536800  0.37324886     0.13900
H1317       H  0.14623156  0.79844761  0.30742234     0.13800
H1318       H  0.16803816  0.82141427  0.29825575     0.12800
C1319       C  0.06376726  0.72154176  0.67582495     0.19100
C1320       C  0.06651027  0.71434436  0.69327264    -0.10000
C1321       C  0.07329907  0.72164731  0.71334791    -0.10800
C1322       C  0.07738565  0.73618164  0.71607530     0.20700
C1323       C  0.07483865  0.74345128  0.69848898    -0.12900
C1324       C  0.06804662  0.73614084  0.67838543    -0.11200
C1325       C  0.08341598  0.74328942  0.73745043     0.01600
C1326       C  0.08746357  0.74823010  0.75628298    -0.31200
C1327       C  0.05602498  0.71378752  0.65576805     0.03000
C1328       C  0.04903235  0.70714998  0.63941860    -0.32800
H1329       H  0.06319353  0.70304463  0.69151436     0.14100
H1330       H  0.07513169  0.71589970  0.72690183     0.13900
H1331       H  0.07786858  0.75466315  0.70047734     0.13800
H1332       H  0.06592124  0.74179007  0.66502733     0.12800
C1333       C  0.17209567  0.82709644  0.83548680     0.19100
C1334       C  0.16693137  0.81422918  0.84777174    -0.10000
C1335       C  0.15376387  0.80220607  0.84202102    -0.10800
C1336       C  0.14568558  0.80298402  0.82395306     0.20700
C1337       C  0.15086741  0.81583592  0.81160385    -0.12900
C1338       C  0.16404130  0.82786522  0.81735762    -0.11200
C1339       C  0.13205541  0.79064353  0.81821155     0.01600
C1340       C  0.12060124  0.78036072  0.81342287    -0.31200
C1341       C  0.18556306  0.83952183  0.84167522     0.03000
C1342       C  0.19676666  0.84991788  0.84716750    -0.32800
H1343       H  0.17305498  0.81351056  0.86183105     0.14100
H1344       H  0.14986581  0.79233278  0.85169391     0.13900
H1345       H  0.14471223  0.81656615  0.79760455     0.13800
H1346       H  0.16791550  0.83775797  0.80774753     0.12800
C1347       C  0.97565527  0.57722119  0.97391331     0.19100
C1348       C  0.96428797  0.57889666  0.98159678    -0.10000
C1349       C  0.96138112  0.58877908  0.97093833    -0.10800
C1350       C  0.96983355  0.59704227  0.95255770     0.20700
C1351       C  0.98103883  0.59518186  0.94457690    -0.12900
C1352       C  0.98395050  0.58528491  0.95525254    -0.11200
C1353       C  0.96736594  0.60785633  0.94268327     0.01600
C1354       C  0.96524486  0.61715524  0.93563765    -0.31200
C1355       C  0.97934481  0.56796552  0.98621755     0.03000
C1356       C  0.98257926  0.56096806  0.99827330    -0.32800
H1357       H  0.95787331  0.57279053  0.99611714     0.14100
H1358       H  0.95272891  0.59017583  0.97729882     0.13900
H1359       H  0.98767289  0.60156020  0.93042697     0.13800
H1360       H  0.99282752  0.58414090  0.94928437     0.12800
C1361       C  0.05053745  0.72516432  0.86043824     0.19100
C1362       C  0.03882160  0.72737963  0.85969002    -0.10000
C1363       C  0.02587720  0.71753688  0.87011281    -0.10800
C1364       C  0.02457042  0.70541678  0.88134133     0.20700
C1365       C  0.03636510  0.70333344  0.88245365    -0.12900
C1366       C  0.04931844  0.71318244  0.87201891    -0.11200
C1367       C  0.01093320  0.69475269  0.89059111     0.01600
C1368       C  0.99929766  0.68548205  0.89707987    -0.31200
C1369       C  0.06337624  0.73457493  0.84785829     0.03000
C1370       C  0.07337164  0.74185819  0.83543625    -0.32800
H1371       H  0.03959396  0.73653082  0.85061211     0.14100
H1372       H  0.01681315  0.71921753  0.86901301     0.13900
H1373       H  0.03545894  0.69395735  0.89096473     0.13800
H1374       H  0.05825994  0.71128587  0.87253778     0.12800
C1375       C  0.90333347  0.65263351  0.04724163     0.19100
C1376       C  0.89585932  0.64239927  0.03016498    -0.10000
C1377       C  0.90277828  0.64261132  0.00978163    -0.10800
C1378       C  0.91719531  0.65305628  0.00642881     0.20700
C1379       C  0.92457561  0.66342269  0.02335410    -0.12900
C1380       C  0.91766748  0.66321106  0.04370352    -0.11200
C1381       C  0.92465858  0.65280962  0.98616664     0.01600
C1382       C  0.93144283  0.65257255  0.96994185    -0.31200
C1383       C  0.89668869  0.65172249  0.06900156     0.03000
C1384       C  0.89194666  0.65060514  0.08803826    -0.32800
H1385       H  0.88480464  0.63410186  0.03279880     0.14100
H1386       H  0.89698341  0.63449947  0.99685347     0.13900
H1387       H  0.93573885  0.67150093  0.02099282     0.13800
H1388       H  0.92358368  0.67110294  0.05686111     0.12800
C1389       C  0.91482988  0.63475417  0.19111570     0.19100
C1390       C  0.91016615  0.62106529  0.20037275    -0.10000
C1391       C  0.91988774  0.61816341  0.21154445    -0.10800
C1392       C  0.93430019  0.62893816  0.21346601     0.20700
C1393       C  0.93890348  0.64266364  0.20446700    -0.12900
C1394       C  0.92919963  0.64556067  0.19331763    -0.11200
C1395       C  0.94454223  0.62581396  0.22368012     0.01600
C1396       C  0.95363702  0.62354947  0.23104981    -0.31200
C1397       C  0.90515239  0.63756927  0.17825452     0.03000
C1398       C  0.89783354  0.64024262  0.16598760    -0.32800
H1399       H  0.89910127  0.61259661  0.19862589     0.14100
H1400       H  0.91622898  0.60748764  0.21833513     0.13900
H1401       H  0.95003477  0.65104976  0.20574142     0.13800
H1402       H  0.93294827  0.65614859  0.18608176     0.12800
C1403       C  0.83779030  0.65270774  0.15904198     0.19100
C1404       C  0.82649323  0.64928483  0.14387609    -0.10000
C1405       C  0.81500398  0.65099809  0.15062387    -0.10800
C1406       C  0.81475836  0.65614110  0.17256163     0.20700
C1407       C  0.82606776  0.65958838  0.18770553    -0.12900
C1408       C  0.83755456  0.65787564  0.18095912    -0.11200
C1409       C  0.80284188  0.65773074  0.17957939     0.01600
C1410       C  0.79271221  0.65884257  0.18532123    -0.31200
C1411       C  0.84963651  0.65096470  0.15215294     0.03000
C1412       C  0.85966281  0.64963575  0.14655965    -0.32800
H1413       H  0.82656274  0.64528877  0.12688284     0.14100
H1414       H  0.80631137  0.64828737  0.13877946     0.13900
H1415       H  0.82598816  0.66356122  0.20471290     0.13800
H1416       H  0.84623414  0.66056378  0.19281957     0.12800
C1417       C  0.80822939  0.64577868  0.66698782     0.19100
C1418       C  0.81840272  0.64974635  0.64947275    -0.10000
C1419       C  0.83123358  0.64988627  0.65345318    -0.10800
C1420       C  0.83393900  0.64605359  0.67496492     0.20700
C1421       C  0.82374626  0.64203897  0.69245169    -0.12900
C1422       C  0.81091710  0.64189965  0.68847218    -0.11200
C1423       C  0.84726037  0.64649556  0.67928128     0.01600
C1424       C  0.85844784  0.64709065  0.68360909    -0.31200
C1425       C  0.79505120  0.64567599  0.66285289     0.03000
C1426       C  0.78410725  0.64562728  0.65865424    -0.32800
H1427       H  0.81642787  0.65275653  0.63278646     0.14100
H1428       H  0.83905135  0.65303378  0.63982653     0.13900
H1429       H  0.82574502  0.63908224  0.70916397     0.13800
H1430       H  0.80312495  0.63880590  0.70212693     0.12800
C1431       C  0.91543847  0.64603751  0.82118931     0.19100
C1432       C  0.92174376  0.65765949  0.80598127    -0.10000
C1433       C  0.91445756  0.65758886  0.78625583    -0.10800
C1434       C  0.90081927  0.64590118  0.78161459     0.20700
C1435       C  0.89438827  0.63434439  0.79697392    -0.12900
C1436       C  0.90169330  0.63441987  0.81676983    -0.11200
C1437       C  0.89397248  0.64555145  0.76038472     0.01600
C1438       C  0.88982919  0.64602563  0.74148088    -0.31200
C1439       C  0.92327657  0.64602833  0.84102129     0.03000
C1440       C  0.93041416  0.64662373  0.85723673    -0.32800
H1441       H  0.93236314  0.66668795  0.80922905     0.14100
H1442       H  0.91955810  0.66653637  0.77442273     0.13900
H1443       H  0.88387555  0.62521545  0.79347284     0.13800
H1444       H  0.89672458  0.62537580  0.82843652     0.12800
C1445       C  0.95528287  0.67000145  0.61862101     0.19100
C1446       C  0.94411934  0.65563135  0.61891306    -0.10000
C1447       C  0.93100015  0.65200068  0.62910311    -0.10800
C1448       C  0.92896817  0.66272512  0.63902946     0.20700
C1449       C  0.94004378  0.67712874  0.63838998    -0.12900
C1450       C  0.95316676  0.68076019  0.62820243    -0.11200
C1451       C  0.91594364  0.65885637  0.65127271     0.01600
C1452       C  0.90569860  0.65571148  0.66328584    -0.31200
C1453       C  0.96908637  0.67356083  0.60952400     0.03000
C1454       C  0.98070967  0.67611975  0.60284069    -0.32800
H1455       H  0.94565079  0.64720951  0.61166682     0.14100
H1456       H  0.92256223  0.64081589  0.62966475     0.13900
H1457       H  0.93863847  0.68549731  0.64618188     0.13800
H1458       H  0.96173587  0.69189460  0.62818882     0.12800
C1459       C  0.98969078  0.39195809  0.65577600     0.19100
C1460       C  0.00101938  0.39726318  0.64007488    -0.10000
C1461       C  0.99986475  0.40279743  0.61907808    -0.10800
C1462       C  0.98738020  0.40306964  0.61364462     0.20700
C1463       C  0.97611108  0.39795011  0.62946815    -0.12900
C1464       C  0.97726910  0.39241053  0.65050140    -0.11200
C1465       C  0.98598153  0.40798636  0.59141757     0.01600
C1466       C  0.98517955  0.41147311  0.57212713    -0.31200
C1467       C  0.99056712  0.38543131  0.67675039     0.03000
C1468       C  0.99108988  0.37932011  0.69369078    -0.32800
H1469       H  0.01064117  0.39690420  0.64390602     0.14100
H1470       H  0.00861283  0.40665210  0.60693361     0.13900
H1471       H  0.96637476  0.39803408  0.62541204     0.13800
H1472       H  0.96841030  0.38827318  0.66246570     0.12800
C1473       C  0.98939501  0.49476420  0.49246482     0.19100
C1474       C  0.99014893  0.48626128  0.47490846    -0.10000
C1475       C  0.98960201  0.47326747  0.48008576    -0.10800
C1476       C  0.98829997  0.46870760  0.50285165     0.20700
C1477       C  0.98756045  0.47721856  0.52039617    -0.12900
C1478       C  0.98810647  0.49020447  0.51522200    -0.11200
C1479       C  0.98756682  0.45525570  0.50825746     0.01600
C1480       C  0.98672053  0.44395175  0.51326631    -0.31200
C1481       C  0.98999255  0.50816734  0.48715703     0.03000
C1482       C  0.99058521  0.51942381  0.48265689    -0.32800
H1483       H  0.99115168  0.48967006  0.45724816     0.14100
H1484       H  0.99016604  0.46677829  0.46636620     0.13900
H1485       H  0.98653516  0.47380334  0.53805663     0.13800
H1486       H  0.98751897  0.49667757  0.52894637     0.12800
C1487       C  0.99623659  0.50143526  0.00554016     0.19100
C1488       C  0.98443930  0.48924135  0.99613335    -0.10000
C1489       C  0.98532646  0.47698087  0.99101239    -0.10800
C1490       C  0.99801434  0.47683733  0.99526695     0.20700
C1491       C  0.00989994  0.48912290  0.00429395    -0.12900
C1492       C  0.00901215  0.50139116  0.00941804    -0.11200
C1493       C  0.99874196  0.46403407  0.99058303     0.01600
C1494       C  0.99909021  0.45320752  0.98635599    -0.31200
C1495       C  0.99506252  0.51378010  0.01187174     0.03000
C1496       C  0.99378313  0.52388380  0.01756464    -0.32800
H1497       H  0.97451143  0.48914894  0.99302811     0.14100
H1498       H  0.97608363  0.46757221  0.98396006     0.13900
H1499       H  0.01978499  0.48916525  0.00757903     0.13800
H1500       H  0.01821080  0.51075933  0.01665373     0.12800
C1501       C  0.99054971  0.39257871  0.84733960     0.19100
C1502       C  0.00334959  0.40513403  0.85302579    -0.10000
C1503       C  0.00438231  0.41241285  0.87345169    -0.10800
C1504       C  0.99261745  0.40718141  0.88830014     0.20700
C1505       C  0.97973641  0.39479264  0.88240052    -0.12900
C1506       C  0.97870400  0.38751420  0.86198062    -0.11200
C1507       C  0.99403900  0.41391744  0.91023053     0.01600
C1508       C  0.99546684  0.41878914  0.92927994    -0.31200
C1509       C  0.98975494  0.38461351  0.82696758     0.03000
C1510       C  0.98946317  0.37786237  0.81023706    -0.32800
H1511       H  0.01259465  0.40914411  0.84188087     0.14100
H1512       H  0.01442428  0.42192975  0.87788105     0.13900
H1513       H  0.97059457  0.39059521  0.89379917     0.13800
H1514       H  0.96876330  0.37780906  0.85781234     0.12800
C1515       C  0.97385755  0.37410017  0.46812815     0.19100
C1516       C  0.95981943  0.36238977  0.46793021    -0.10000
C1517       C  0.95680276  0.34942964  0.45750298    -0.10800
C1518       C  0.96781313  0.34810817  0.44722005     0.20700
C1519       C  0.98179865  0.35991739  0.44698020    -0.12900
C1520       C  0.98481793  0.37288264  0.45742199    -0.11200
C1521       C  0.96494084  0.33441218  0.43821454     0.01600
C1522       C  0.96273505  0.32275094  0.43199943    -0.31200
C1523       C  0.97712004  0.38692354  0.48074942     0.03000
C1524       C  0.97952842  0.39690349  0.49309210    -0.32800
H1525       H  0.95127854  0.36316768  0.47630553     0.14100
H1526       H  0.94596632  0.34035368  0.45791857     0.13900
H1527       H  0.99041280  0.35899666  0.43919795     0.13800
H1528       H  0.99573007  0.38182277  0.45761567     0.12800
C1529       C  0.91629103  0.24055417  0.51012870     0.19100
C1530       C  0.92278079  0.23632069  0.52669295    -0.10000
C1531       C  0.91549631  0.22980328  0.54693483    -0.10800
C1532       C  0.90167566  0.22747093  0.55071964     0.20700
C1533       C  0.89504355  0.23138815  0.53391203    -0.12900
C1534       C  0.90233370  0.23790857  0.51364939    -0.11200
C1535       C  0.89487296  0.22222005  0.57258530     0.01600
C1536       C  0.89021601  0.21918634  0.59179403    -0.31200
C1537       C  0.92420494  0.24819911  0.49007548     0.03000
C1538       C  0.93103124  0.25503789  0.47370770    -0.32800
H1539       H  0.93357764  0.23834541  0.52418490     0.14100
H1540       H  0.92077731  0.22692562  0.55987490     0.13900
H1541       H  0.88440737  0.22974167  0.53671681     0.13800
H1542       H  0.89722197  0.24116947  0.50098164     0.12800
C1543       C  0.91760159  0.26079474  0.69235019     0.19100
C1544       C  0.91305474  0.26811784  0.70687660    -0.10000
C1545       C  0.92312800  0.28097863  0.71747628    -0.10800
C1546       C  0.93780434  0.28659159  0.71359815     0.20700
C1547       C  0.94233919  0.27914830  0.69933737    -0.12900
C1548       C  0.93228056  0.26630639  0.68875366    -0.11200
C1549       C  0.94821956  0.30022191  0.72347181     0.01600
C1550       C  0.95728231  0.31183033  0.73063379    -0.31200
C1551       C  0.90728953  0.24803401  0.68025055     0.03000
C1552       C  0.89919626  0.23781944  0.66869644    -0.32800
H1553       H  0.90174205  0.26401247  0.70972466     0.14100
H1554       H  0.91947261  0.28664152  0.72840470     0.13900
H1555       H  0.95364071  0.28338183  0.69613285     0.13800
H1556       H  0.93594274  0.26079588  0.67748899     0.12800
C1557       C  0.81068673  0.13961681  0.67645831     0.19100
C1558       C  0.81843817  0.14981264  0.69346713    -0.10000
C1559       C  0.83062561  0.16291213  0.68768290    -0.10800
C1560       C  0.83514256  0.16590184  0.66484755     0.20700
C1561       C  0.82739564  0.15569967  0.64786100    -0.12900
C1562       C  0.81521913  0.14261202  0.65363995    -0.11200
C1563       C  0.84770017  0.17937644  0.65875934     0.01600
C1564       C  0.85817154  0.19049562  0.65298588    -0.31200
C1565       C  0.79815780  0.12607218  0.68238342     0.03000
C1566       C  0.78774738  0.11466193  0.68725893    -0.32800
H1567       H  0.81507103  0.14763356  0.71117582     0.14100
H1568       H  0.83651550  0.17068935  0.70099062     0.13900
H1569       H  0.83077064  0.15786021  0.63015279     0.13800
H1570       H  0.80935059  0.13483079  0.64032533     0.12800
C1571       C  0.91496359  0.24116045  0.32138646     0.19100
C1572       C  0.91332613  0.24901300  0.30374331    -0.10000
C1573       C  0.90726411  0.24232833  0.28292980    -0.10800
C1574       C  0.90278731  0.22774099  0.27961731     0.20700
C1575       C  0.90420285  0.21980166  0.29738616    -0.12900
C1576       C  0.91027749  0.22650102  0.31824586    -0.11200
C1577       C  0.89746910  0.22124845  0.25757352     0.01600
C1578       C  0.89397317  0.21684695  0.23831302    -0.31200
C1579       C  0.92208355  0.24838366  0.34218882     0.03000
C1580       C  0.92871871  0.25501278  0.35882515    -0.32800
H1581       H  0.91696614  0.26036131  0.30593504     0.14100
H1582       H  0.90629943  0.24859591  0.26928156     0.13900
H1583       H  0.90085009  0.20853571  0.29498206     0.13800
H1584       H  0.91154607  0.22033530  0.33173912     0.12800
C1585       C  0.81151523  0.13795995  0.15802127     0.19100
C1586       C  0.82313600  0.14246712  0.14301705    -0.10000
C1587       C  0.83624601  0.15484548  0.14790012    -0.10800
C1588       C  0.83780663  0.16278915  0.16781364     0.20700
C1589       C  0.82616539  0.15831917  0.18274505    -0.12900
C1590       C  0.81306430  0.14594840  0.17786620    -0.11200
C1591       C  0.85137398  0.17536594  0.17318687     0.01600
C1592       C  0.86266313  0.18576997  0.17837960    -0.31200
C1593       C  0.79802232  0.12517143  0.15306924     0.03000
C1594       C  0.78672218  0.11452152  0.14873859    -0.32800
H1595       H  0.82207298  0.13639803  0.12760317     0.14100
H1596       H  0.84516371  0.15817757  0.13622846     0.13900
H1597       H  0.82723701  0.16435686  0.19820112     0.13800
H1598       H  0.80416577  0.14259444  0.18958576     0.12800
C1599       C  0.00941575  0.39505626  0.03322274     0.19100
C1600       C  0.99791877  0.38211327  0.04136045    -0.10000
C1601       C  0.00044335  0.37191306  0.05192817    -0.10800
C1602       C  0.01447799  0.37459340  0.05439755     0.20700
C1603       C  0.02598872  0.38767886  0.04674417    -0.12900
C1604       C  0.02346489  0.39787581  0.03617929    -0.11200
C1605       C  0.01701893  0.36357678  0.06335906     0.01600
C1606       C  0.01915495  0.35407807  0.06940746    -0.31200
C1607       C  0.00676717  0.40491858  0.02034407     0.03000
C1608       C  0.00456316  0.41253914  0.00787160    -0.32800
H1609       H  0.98700410  0.37975623  0.03902738     0.14100
H1610       H  0.99144974  0.36180697  0.05765510     0.13900
H1611       H  0.03688058  0.38984607  0.04843399     0.13800
H1612       H  0.03243685  0.40778817  0.02981264     0.12800
C1613       C  0.95959634  0.26427348  0.11844783     0.19100
C1614       C  0.94842362  0.26730714  0.11978187    -0.10000
C1615       C  0.93518484  0.25715760  0.12903759    -0.10800
C1616       C  0.93305393  0.24391525  0.13697397     0.20700
C1617       C  0.94415785  0.24079786  0.13531666    -0.12900
C1618       C  0.95739574  0.25094754  0.12607248    -0.11200
C1619       C  0.91991839  0.23398296  0.14838779     0.01600
C1620       C  0.90968518  0.22610894  0.15996216    -0.31200
C1621       C  0.97345221  0.27505574  0.11012455     0.03000
C1622       C  0.98510487  0.28444413  0.10394623    -0.32800
H1623       H  0.95002682  0.27760281  0.11404009     0.14100
H1624       H  0.92672841  0.25974640  0.13043092     0.13900
H1625       H  0.94267654  0.23065146  0.14160087     0.13800
H1626       H  0.96597243  0.24850721  0.12523346     0.12800
C1627       C  0.06504045  0.32060612  0.98848860     0.19100
C1628       C  0.05823138  0.31069808  0.97075035    -0.10000
C1629       C  0.06562245  0.31184479  0.95048607    -0.10800
C1630       C  0.07986878  0.32289531  0.94784939     0.20700
C1631       C  0.08670295  0.33279046  0.96561046    -0.12900
C1632       C  0.07930460  0.33164100  0.98589909    -0.11200
C1633       C  0.08717673  0.32436467  0.92653246     0.01600
C1634       C  0.09230241  0.32551382  0.90777620    -0.31200
C1635       C  0.05727653  0.31964884  0.00907457     0.03000
C1636       C  0.05065999  0.31911366  0.02603536    -0.32800
H1637       H  0.04718813  0.30217112  0.97251202     0.14100
H1638       H  0.06019173  0.30420448  0.93679688     0.13900
H1639       H  0.09767441  0.34144728  0.96369349     0.13800
H1640       H  0.08465350  0.33940800  0.99946276     0.12800
C1641       C  0.06744869  0.33874963  0.80611578     0.19100
C1642       C  0.05297717  0.32797841  0.80656242    -0.10000
C1643       C  0.04262639  0.33038742  0.79651817    -0.10800
C1644       C  0.04665533  0.34359504  0.78596555     0.20700
C1645       C  0.06114259  0.35435112  0.78535914    -0.12900
C1646       C  0.07151335  0.35193814  0.79542640    -0.11200
C1647       C  0.03582761  0.34619819  0.77653731     0.01600
C1648       C  0.02632635  0.34805479  0.76974664    -0.31200
C1649       C  0.07790369  0.33645426  0.81773912     0.03000
C1650       C  0.08576937  0.33416332  0.82936896    -0.32800
H1651       H  0.04967250  0.31778843  0.81495029     0.14100
H1652       H  0.03146401  0.32201739  0.79722749     0.13900
H1653       H  0.06439124  0.36463991  0.77737011     0.13800
H1654       H  0.08264503  0.36040157  0.79514336     0.12800
C1655       C  0.14523842  0.32009759  0.83861876     0.19100
C1656       C  0.15695867  0.32512409  0.85348552    -0.10000
C1657       C  0.16869362  0.32354004  0.84777916    -0.10800
C1658       C  0.16880013  0.31691290  0.82716226     0.20700
C1659       C  0.15704132  0.31180327  0.81236065    -0.12900
C1660       C  0.14530443  0.31338775  0.81806765    -0.11200
C1661       C  0.18097323  0.31542007  0.82115958     0.01600
C1662       C  0.19114001  0.31415178  0.81608964    -0.31200
C1663       C  0.13325517  0.32197267  0.84434925     0.03000
C1664       C  0.12336521  0.32371791  0.84935186    -0.32800
H1665       H  0.15705328  0.33032167  0.86942911     0.14100
H1666       H  0.17769512  0.32752545  0.85939353     0.13900
H1667       H  0.15696857  0.30664624  0.79638515     0.13800
H1668       H  0.13632213  0.30944320  0.80642170     0.12800
C1669       C  0.06650329  0.31935694  0.17916403     0.19100
C1670       C  0.06624299  0.30664376  0.18547246    -0.10000
C1671       C  0.07267792  0.30607669  0.20588599    -0.10800
C1672       C  0.07942509  0.31822237  0.22008736     0.20700
C1673       C  0.07981683  0.33098116  0.21364708    -0.12900
C1674       C  0.07338376  0.33154840  0.19323295    -0.11200
C1675       C  0.08516510  0.31731941  0.24185384     0.01600
C1676       C  0.08884104  0.31609095  0.26079227    -0.31200
C1677       C  0.05924405  0.31973282  0.15876472     0.03000
C1678       C  0.05269371  0.31990288  0.14220220    -0.32800
H1679       H  0.06089276  0.29712512  0.17479749     0.14100
H1680       H  0.07219314  0.29611445  0.21077097     0.13900
H1681       H  0.08488701  0.34040383  0.22456834     0.13800
H1682       H  0.07358990  0.34141299  0.18859318     0.12800
C1683       C  0.02187920  0.29218915  0.38086387     0.19100
C1684       C  0.02317786  0.28157518  0.36892660    -0.10000
C1685       C  0.03631200  0.28483041  0.35918340    -0.10800
C1686       C  0.04822953  0.29870943  0.36134188     0.20700
C1687       C  0.04697894  0.30926618  0.37355094    -0.12900
C1688       C  0.03384387  0.30600951  0.38330054    -0.11200
C1689       C  0.06142351  0.30232243  0.34979061     0.01600
C1690       C  0.07184699  0.30528410  0.33831267    -0.31200
C1691       C  0.00815300  0.28912488  0.38965385     0.03000
C1692       C  0.99659472  0.28690250  0.39609386    -0.32800
H1693       H  0.01399199  0.27087537  0.36681249     0.14100
H1694       H  0.03710649  0.27661101  0.34961783     0.13900
H1695       H  0.05607195  0.32006716  0.37517362     0.13800
H1696       H  0.03295458  0.31432784  0.39238077     0.12800
C1697       C  0.16889676  0.31398961  0.34050716     0.19100
C1698       C  0.16462988  0.31311560  0.31765444    -0.10000
C1699       C  0.15173729  0.31258915  0.31230486    -0.10800
C1700       C  0.14299646  0.31294344  0.32975332     0.20700
C1701       C  0.14726062  0.31382279  0.35261337    -0.12900
C1702       C  0.16015936  0.31434915  0.35796571    -0.11200
C1703       C  0.12974257  0.31249902  0.32414722     0.01600
C1704       C  0.11875008  0.31221079  0.31906313    -0.31200
C1705       C  0.18219453  0.31449409  0.34600798     0.03000
C1706       C  0.19333872  0.31494291  0.35052680    -0.32800
H1707       H  0.17126324  0.31283761  0.30397577     0.14100
H1708       H  0.14859596  0.31192298  0.29456568     0.13900
H1709       H  0.14063170  0.31411784  0.36628379     0.13800
H1710       H  0.16331274  0.31503239  0.37570064     0.12800
loop_ 
_geom_bond_atom_site_label_1 
_geom_bond_atom_site_label_2 
_geom_bond_distance 
_geom_bond_site_symmetry_2 
_ccdc_geom_bond_type 
C1            N2   1.361       .  A
C1            N6   1.361       .  A
C1         C1704   1.443       .  S
N2            C3   1.359       .  A
C3            N4   1.354       .  A
C3         C1676   1.437       .  S
N4            C5   1.355       .  A
C5            N6   1.359       .  A
C5         C1690   1.438       .  S
C7            N8   1.360       .  A
C7           N12   1.362       .  A
C7         C1664   1.441       .  S
N8            C9   1.358       .  A
C9           N10   1.354       .  A
C9         C1634   1.436       .  S
N10          C11   1.354       .  A
C11          N12   1.360       .  A
C11        C1650   1.438       .  S
O13          C16   1.264       .  A
O13         Cd18   2.481       .  S
C14        C1678   1.436       .  S
C14          O23   1.263       .  A
C14          O19   1.264       .  A
O15          C21   1.264   1_455  A
O15         Cd18   2.477       .  S
C16        C1606   1.437       .  S
C16          O24   1.263       .  A
C17        C1636   1.435       .  S
C17          O22   1.264       .  A
C17          O20   1.263       .  A
Cd18         O25   2.462       .  S
Cd18         O24   2.466       .  S
Cd18         O23   2.467       .  S
Cd18         O19   2.472       .  S
Cd18         O22   2.474       .  S
Cd18         O20   2.462       .  S
C21        C1622   1.436       .  S
C21          O25   1.263   1_655  A
C26          N27   1.360       .  A
C26          N31   1.360       .  A
C26        C1592   1.438       .  S
N27          C28   1.358       .  A
C28          N29   1.355       .  A
C28        C1620   1.436       .  S
N29          C30   1.355       .  A
C30          N31   1.358       .  A
C30        C1578   1.436       .  S
C32          N33   1.360       .  A
C32          N37   1.361       .  A
C32        C1564   1.440       .  S
N33          C34   1.358       .  A
C34          N35   1.355       .  A
C34        C1536   1.437       .  S
N35          C36   1.356       .  A
C36          N37   1.359       .  A
C36        C1552   1.439       .  S
O38          C41   1.264       .  A
O38         Cd43   2.479       .  S
C39        C1580   1.435       .  S
C39          O48   1.263       .  A
C39          O44   1.264       .  A
O40          C46   1.264       .  A
O40         Cd43   2.480       .  S
C41        C1522   1.436       .  S
C41          O49   1.263       .  A
C42        C1538   1.435       .  S
C42          O47   1.264       .  A
C42          O45   1.263       .  A
Cd43         O50   2.465       .  S
Cd43         O49   2.467       .  S
Cd43         O48   2.466       .  S
Cd43         O44   2.468       .  S
Cd43         O47   2.473       .  S
Cd43         O45   2.463       .  S
C46        C1692   1.437       .  S
C46          O50   1.263       .  A
C51          N52   1.359       .  A
C51          N56   1.360   1_655  A
C51        C1494   1.438       .  S
N52          C53   1.357       .  A
C53          N54   1.356       .  A
C53        C1508   1.437       .  S
N54          C55   1.356   1_655  A
C55          N56   1.359       .  A
C55        C1608   1.438   1_556  S
C57          N58   1.359       .  A
C57          N62   1.359       .  A
C57        C1480   1.438       .  S
N58          C59   1.358       .  A
C59          N60   1.355       .  A
C59        C1466   1.436       .  S
N60          C61   1.356       .  A
C61          N62   1.358       .  A
C61        C1524   1.436       .  S
O63          C66   1.264       .  A
O63         Cd68   2.485   1_455  S
C64        C1468   1.436       .  S
C64          O73   1.263       .  A
C64          O69   1.264   1_655  A
O65          C71   1.265       .  A
O65         Cd68   2.488       .  S
C66        C1648   1.439       .  S
C66          O74   1.263       .  A
C67        C1510   1.438       .  S
C67          O72   1.265       .  A
C67          O70   1.263   1_655  A
Cd68         O75   2.468       .  S
Cd68         O74   2.467   1_655  S
Cd68         O73   2.467       .  S
Cd68         O69   2.472   1_655  S
Cd68         O72   2.485       .  S
Cd68         O70   2.467   1_655  S
C71        C1550   1.440       .  S
C71          O75   1.263       .  A
C76          N77   1.360       .  A
C76          N81   1.358       .  A
C76        C1424   1.435       .  S
N77          C78   1.358       .  A
C78          N79   1.355       .  A
C78        C1452   1.436       .  S
N79          C80   1.355       .  A
C80          N81   1.356       .  A
C80        C1438   1.433       .  S
C82          N83   1.359       .  A
C82          N87   1.359       .  A
C82        C1412   1.436       .  S
N83          C84   1.358       .  A
C84          N85   1.355       .  A
C84        C1398   1.435       .  S
N85          C86   1.355       .  A
C86          N87   1.357       .  A
C86        C1384   1.434       .  S
O88          C91   1.264       .  A
O88         Cd93   2.467       .  S
C89        C1354   1.433       .  S
C89          O98   1.263       .  A
C89          O94   1.263       .  A
O90          C96   1.264       .  A
O90         Cd93   2.485       .  S
C91        C1440   1.433       .  S
C91          O99   1.263       .  A
C92        C1382   1.435       .  S
C92          O97   1.265       .  A
C92          O95   1.263       .  A
Cd93        O100   2.461       .  S
Cd93         O99   2.458       .  S
Cd93         O98   2.460       .  S
Cd93         O94   2.470       .  S
Cd93         O97   2.469       .  S
Cd93         O95   2.463       .  S
C96        C1368   1.437       .  S
C96         O100   1.262       .  A
C101        N102   1.359       .  A
C101        N106   1.360       .  A
C101       C1340   1.436       .  S
N102        C103   1.357       .  A
C103        N104   1.355       .  A
C103       C1326   1.434       .  S
N104        C105   1.355       .  A
C105        N106   1.358       .  A
C105       C1370   1.436       .  S
C107        N108   1.359       .  A
C107        N112   1.360       .  A
C107       C1312   1.437       .  S
N108        C109   1.357       .  A
C109        N110   1.355       .  A
C109       C1284   1.435       .  S
N110        C111   1.355       .  A
C111        N112   1.358       .  A
C111       C1298   1.437       .  S
O113        C116   1.263       .  A
O113       Cd118   2.467       .  S
C114       C1270   1.435       .  S
C114        O123   1.263       .  A
C114        O119   1.263       .  A
O115        C121   1.263   1_455  A
O115       Cd118   2.486       .  S
C116       C1328   1.434       .  S
C116        O124   1.263       .  A
C117       C1286   1.436       .  S
C117        O122   1.264       .  A
C117        O120   1.263       .  A
Cd118       O125   2.467       .  S
Cd118       O124   2.463       .  S
Cd118       O123   2.466       .  S
Cd118       O119   2.472       .  S
Cd118       O122   2.471       .  S
Cd118       O120   2.466       .  S
C121       C1454   1.437       .  S
C121        O125   1.262   1_655  A
C126        N127   1.359       .  A
C126        N131   1.360       .  A
C126       C1496   1.437       .  S
N127        C128   1.357       .  A
C128        N129   1.354       .  A
C128       C1356   1.433   1_554  S
N129        C130   1.354       .  A
C130        N131   1.359       .  A
C130       C1258   1.436       .  S
C132        N133   1.360       .  A
C132        N137   1.360       .  A
C132       C1482   1.438       .  S
N133        C134   1.358       .  A
C134        N135   1.354       .  A
C134       C1242   1.436       .  S
N135        C136   1.354       .  A
C136        N137   1.358       .  A
C136       C1272   1.436       .  S
O138        C141   1.263       .  A
O138       Cd143   2.474   1_455  S
C139       C1256   1.436       .  S
C139        O148   1.263       .  A
C139        O144   1.263   1_655  A
O140        C146   1.263       .  A
O140       Cd143   2.478       .  S
C141       C1300   1.437       .  S
C141        O149   1.263   1_455  A
C142       C1396   1.434       .  S
C142        O147   1.264       .  A
C142        O145   1.263       .  A
Cd143       O150   2.469       .  S
Cd143       O149   2.471       .  S
Cd143       O148   2.471       .  S
Cd143       O144   2.472   1_655  S
Cd143       O147   2.473       .  S
Cd143       O145   2.456       .  S
C146       C1244   1.436       .  S
C146        O150   1.263       .  A
C151        N152   1.360       .  A
C151        N156   1.359       .  A
C151       C1230   1.438       .  S
N152        C153   1.359       .  A
C153        N154   1.355       .  A
C153       C1214   1.436       .  S
N154        C155   1.355       .  A
C155        N156   1.357       .  A
C155       C1200   1.435       .  S
C157        N158   1.360       .  A
C157        N162   1.359       .  A
C157       C1186   1.438       .  S
N158        C159   1.359       .  A
C159        N160   1.355       .  A
C159       C1172   1.436       .  S
N160        C161   1.354       .  A
C161        N162   1.357       .  A
C161       C1160   1.434       .  S
O163        C166   1.264       .  A
O163       Cd168   2.474       .  S
C164       C1158   1.434       .  S
C164        O173   1.263       .  A
C164        O169   1.264       .  A
O165        C171   1.264       .  A
O165       Cd168   2.478       .  S
C166       C1130   1.435       .  S
C166        O174   1.263       .  A
C167       C1202   1.434       .  S
C167        O172   1.264       .  A
C167        O170   1.263       .  A
Cd168       O175   2.462       .  S
Cd168       O174   2.463       .  S
Cd168       O173   2.457       .  S
Cd168       O169   2.474       .  S
Cd168       O172   2.469       .  S
Cd168       O170   2.464       .  S
C171       C1146   1.436       .  S
C171        O175   1.263       .  A
C176        N177   1.361       .  A
C176        N181   1.359       .  A
C176       C1116   1.438       .  S
N177        C178   1.359       .  A
C178        N179   1.354       .  A
C178       C1102   1.436       .  S
N179        C180   1.354       .  A
C180        N181   1.357       .  A
C180       C1088   1.434       .  S
C182        N183   1.359       .  A
C182        N187   1.361       .  A
C182       C1074   1.439       .  S
N183        C184   1.357       .  A
C184        N185   1.355       .  A
C184       C1060   1.435       .  S
N185        C186   1.355       .  A
C186        N187   1.359       .  A
C186       C1144   1.437   1_556  S
O188        C191   1.264       .  A
O188       Cd193   2.478       .  S
C189       C1062   1.435       .  S
C189        O198   1.263       .  A
C189        O194   1.264       .  A
O190        C196   1.265       .  A
O190       Cd193   2.478       .  S
C191       C1046   1.436       .  S
C191        O199   1.263       .  A
C192       C1090   1.433       .  S
C192        O197   1.264       .  A
C192        O195   1.263       .  A
Cd193       O200   2.448       .  S
Cd193       O199   2.460       .  S
Cd193       O198   2.468       .  S
Cd193       O194   2.465       .  S
Cd193       O197   2.466       .  S
Cd193       O195   2.463       .  S
C196       C1174   1.434       .  S
C196        O200   1.263       .  A
C201        N202   1.359       .  A
C201        N206   1.359       .  A
C201       C1410   1.436       .  S
N202        C203   1.357       .  A
C203        N204   1.355       .  A
C203       C1132   1.434       .  S
N204        C205   1.355       .  A
C205        N206   1.358       .  A
C205       C1032   1.435       .  S
C207        N208   1.360       .  A
C207        N212   1.358       .  A
C207       C1426   1.435       .  S
N208        C209   1.359       .  A
C209        N210   1.356       .  A
C209       C1048   1.436       .  S
N210        C211   1.355       .  A
C211        N212   1.356       .  A
C211       C1020   1.434       .  S
O213        C216   1.264       .  A
O213       Cd218   2.478       .  S
C214       C1034   1.435       .  S
C214        O223   1.263       .  A
C214        O219   1.264       .  A
O215        C221   1.264       .  A
O215       Cd218   2.480       .  S
C216       C1104   1.438       .  S
C216        O224   1.264       .  A
C217       C1018   1.435       .  S
C217        O222   1.264       .  A
C217        O220   1.263       .  A
Cd218       O225   2.468       .  S
Cd218       O224   2.471       .  S
Cd218       O223   2.463       .  S
Cd218       O219   2.473       .  S
Cd218       O222   2.471       .  S
Cd218       O220   2.467       .  S
C221       C1216   1.437       .  S
C221        O225   1.263       .  A
C226        N227   1.360       .  A
C226        N231   1.361       .  A
C226       C1076   1.439       .  S
N227        C228   1.357       .  A
C228        N229   1.354       .  A
C228        C992   1.436       .  S
N229        C230   1.355       .  A
C230        N231   1.359       .  A
C230       C1006   1.437   1_554  S
C232        N233   1.360       .  A
C232        N237   1.360       .  A
C232       C1118   1.439       .  S
N233        C234   1.358       .  A
C234        N235   1.356       .  A
C234        C962   1.439       .  S
N235        C236   1.356       .  A
C236        N237   1.359       .  A
C236        C976   1.438       .  S
O238        C241   1.265       .  A
O238       Cd243   2.480       .  S
C239        C990   1.436       .  S
C239        O248   1.263       .  A
C239        O244   1.264       .  A
O240        C246   1.264       .  A
O240       Cd243   2.478       .  S
C241        C936   1.436       .  S
C241        O249   1.263       .  A
C242        C948   1.436       .  S
C242        O247   1.264       .  A
C242        O245   1.263       .  A
Cd243       O250   2.472       .  S
Cd243       O249   2.457       .  S
Cd243       O248   2.467       .  S
Cd243       O244   2.477       .  S
Cd243       O247   2.480       .  S
Cd243       O245   2.465       .  S
C246        C964   1.439       .  S
C246        O250   1.264       .  A
C251        N252   1.361       .  A
C251        N256   1.360       .  A
C251        C920   1.441       .  S
N252        C253   1.359       .  A
C253        N254   1.356       .  A
C253        C892   1.439       .  S
N254        C255   1.356       .  A
C255        N256   1.359       .  A
C255        C908   1.438       .  S
C257        N258   1.360       .  A
C257        N262   1.360       .  A
C257        C864   1.437       .  S
N258        C259   1.358       .  A
C259        N260   1.354       .  A
C259        C950   1.435       .  S
N260        C261   1.354       .  A
C261        N262   1.358       .  A
C261        C878   1.435       .  S
O263        C266   1.263       .  A
O263       Cd268   2.478       .  S
C264       C1004   1.438       .  S
C264        O273   1.263       .  A
C264        O269   1.263       .  A
O265        C271   1.263       .  A
O265       Cd268   2.483       .  S
C266        C894   1.439       .  S
C266        O274   1.264       .  A
C267        C880   1.436       .  S
C267        O272   1.263       .  A
C267        O270   1.263       .  A
Cd268       O275   2.470       .  S
Cd268       O274   2.480       .  S
Cd268       O273   2.476       .  S
Cd268       O269   2.476       .  S
Cd268       O272   2.476       .  S
Cd268       O270   2.470       .  S
C271        C852   1.438       .  S
C271        O275   1.263       .  A
C276        N277   1.361       .  A
C276        N281   1.361       .  A
C276       C1662   1.441       .  S
N277        C278   1.359       .  A
C278        N279   1.355       .  A
C278        C838   1.438       .  S
N279        C280   1.355       .  A
C280        N281   1.359       .  A
C280        C850   1.438       .  S
C282        N283   1.362       .  A
C282        N287   1.361       .  A
C282       C1706   1.443       .  S
N283        C284   1.360       .  A
C284        N285   1.354       .  A
C284        C824   1.439       .  S
N285        C286   1.354       .  A
C286        N287   1.359       .  A
C286        C934   1.437       .  S
O288        C291   1.264       .  A
O288       Cd293   2.480       .  S
C289        C978   1.438       .  S
C289        O298   1.263       .  A
C289        O294   1.264       .  A
O290        C296   1.264       .  A
O290       Cd293   2.489       .  S
C291        C836   1.438       .  S
C291        O299   1.263       .  A
C292        C822   1.439       .  S
C292        O297   1.264       .  A
C292        O295   1.263       .  A
Cd293       O300   2.467       .  S
Cd293       O299   2.470       .  S
Cd293       O298   2.465       .  S
Cd293       O294   2.485       .  S
Cd293       O297   2.476       .  S
Cd293       O295   2.477       .  S
C296        C906   1.439       .  S
C296        O300   1.263       .  A
C301        N302   1.361       .  A
C301        N306   1.361       .  A
C301       C1566   1.441       .  S
N302        C303   1.359       .  A
C303        N304   1.354       .  A
C303        C794   1.438       .  S
N304        C305   1.355       .  A
C305        N306   1.359       .  A
C305        C808   1.438       .  S
C307        N308   1.361       .  A
C307        N312   1.359       .  A
C307       C1594   1.439       .  S
N308        C309   1.359       .  A
C309        N310   1.354       .  A
C309        C782   1.437       .  S
N310        C311   1.354       .  A
C311        N312   1.357       .  A
C311        C768   1.434       .  S
O313        C316   1.264       .  A
O313       Cd318   2.479       .  S
C314        C796   1.438       .  S
C314        O323   1.263       .  A
C314        O319   1.264       .  A
O315        C321   1.263       .  A
O315       Cd318   2.466       .  S
C316        C738   1.438       .  S
C316        O324   1.263       .  A
C317        C754   1.435       .  S
C317        O322   1.264       .  A
C317        O320   1.263       .  A
Cd318       O325   2.465       .  S
Cd318       O324   2.471       .  S
Cd318       O323   2.467       .  S
Cd318       O319   2.480       .  S
Cd318       O322   2.474   1_545  S
Cd318       O320   2.462   1_545  S
C321        C766   1.434       .  S
C321        O325   1.263       .  A
C326        N327   1.360       .  A
C326        N331   1.360       .  A
C326       C1188   1.438       .  S
N327        C328   1.358       .  A
C328        N329   1.354       .  A
C328        C752   1.435       .  S
N329        C330   1.354       .  A
C330        N331   1.358       .  A
C330        C724   1.436       .  S
C332        N333   1.360       .  A
C332        N337   1.360       .  A
C332       C1228   1.439       .  S
N333        C334   1.358       .  A
C334        N335   1.355       .  A
C334        C710   1.437       .  S
N335        C336   1.355       .  A
C336        N337   1.359       .  A
C336        C698   1.438       .  S
O338        C341   1.264       .  A
O338       Cd343   2.479       .  S
C339        C726   1.437       .  S
C339        O348   1.263       .  A
C339        O344   1.264       .  A
O340        C346   1.265       .  A
O340       Cd343   2.482       .  S
C341        C682   1.439       .  S
C341        O349   1.264       .  A
C342        C810   1.440       .  S
C342        O347   1.264       .  A
C342        O345   1.263       .  A
Cd343       O350   2.467       .  S
Cd343       O349   2.471       .  S
Cd343       O348   2.468       .  S
Cd343       O344   2.483       .  S
Cd343       O347   2.488       .  S
Cd343       O345   2.477       .  S
C346        C696   1.439       .  S
C346        O350   1.263       .  A
C351        N352   1.360       .  A
C351        N356   1.360       .  A
C351        C656   1.439       .  S
N352        C353   1.358       .  A
C353        N354   1.356       .  A
C353        C684   1.438       .  S
N354        C355   1.356       .  A
C355        N356   1.358       .  A
C355        C668   1.439       .  S
C357        N358   1.361       .  A
C357        N362   1.361       .  A
C357        C642   1.442       .  S
N358        C359   1.359       .  A
C359        N360   1.355       .  A
C359        C740   1.438   1_554  S
N360        C361   1.355       .  A
C361        N362   1.359       .  A
C361        C626   1.439       .  S
O363        C366   1.265       .  A
O363       Cd368   2.480       .  S
C364        C712   1.438       .  S
C364        O373   1.263       .  A
C364        O369   1.264       .  A
O365        C371   1.264       .  A
O365       Cd368   2.485   1_545  S
C366        C628   1.439       .  S
C366        O374   1.264       .  A
C367        C670   1.440       .  S
C367        O372   1.264       .  A
C367        O370   1.263       .  A
Cd368       O375   2.479       .  S
Cd368       O374   2.469       .  S
Cd368       O373   2.471       .  S
Cd368       O369   2.486       .  S
Cd368       O372   2.482       .  S
Cd368       O370   2.477       .  S
C371        C780   1.440       .  S
C371        O375   1.263   1_545  A
C376        N377   1.360       .  A
C376        N381   1.359       .  A
C376        C866   1.436       .  S
N377        C378   1.358       .  A
C378        N379   1.355       .  A
C378        C612   1.436       .  S
N379        C380   1.355       .  A
C380        N381   1.357       .  A
C380        C600   1.434       .  S
C382        N383   1.360       .  A
C382        N387   1.361       .  A
C382        C922   1.440       .  S
N383        C384   1.358       .  A
C384        N385   1.356       .  A
C384        C586   1.438       .  S
N385        C386   1.355       .  A
C386        N387   1.359       .  A
C386        C570   1.439       .  S
O388        C391   1.263       .  A
O388       Cd393   2.469       .  S
C389        C544   1.434       .  S
C389        O398   1.263       .  A
C389        O394   1.264       .  A
O390        C396   1.264       .  A
O390       Cd393   2.477       .  S
C391        C598   1.434       .  S
C391        O399   1.263       .  A
C392        C556   1.435       .  S
C392        O397   1.264       .  A
C392        O395   1.263       .  A
Cd393       O400   2.472       .  S
Cd393       O399   2.464       .  S
Cd393       O398   2.461       .  S
Cd393       O394   2.469       .  S
Cd393       O397   2.476   1_545  S
Cd393       O395   2.460   1_545  S
C396        C572   1.438       .  S
C396        O400   1.263       .  A
C401        N402   1.360       .  A
C401        N406   1.358       .  A
C401       C1314   1.436       .  S
N402        C403   1.358       .  A
C403        N404   1.356       .  A
C403        C558   1.436       .  S
N404        C405   1.355       .  A
C405        N406   1.356       .  A
C405        C528   1.435       .  S
C407        N408   1.359       .  A
C407        N412   1.360       .  A
C407       C1342   1.437       .  S
N408        C409   1.358       .  A
C409        N410   1.356       .  A
C409        C514   1.437       .  S
N410        C411   1.356       .  A
C411        N412   1.358       .  A
C411        C500   1.438       .  S
O413        C416   1.263       .  A
O413       Cd418   2.477       .  S
C414        C488   1.438       .  S
C414        O423   1.263       .  A
C414        O419   1.264       .  A
O415        C421   1.264       .  A
O415       Cd418   2.477       .  S
C416        C530   1.436       .  S
C416        O424   1.263       .  A
C417        C614   1.437       .  S
C417        O422   1.264       .  A
C417        O420   1.263       .  A
Cd418       O425   2.471       .  S
Cd418       O424   2.466       .  S
Cd418       O423   2.468       .  S
Cd418       O419   2.483       .  S
Cd418       O422   2.484       .  S
Cd418       O420   2.468       .  S
C421        C502   1.438       .  S
C421        O425   1.263       .  A
C426        N427   1.361       .  A
C426        N431   1.359       .  A
C426        C654   1.438       .  S
N427        C428   1.359       .  A
C428        N429   1.354       .  A
C428        C472   1.437       .  S
N429        C430   1.355       .  A
C430        N431   1.358       .  A
C430        C542   1.434       .  S
C432        N433   1.360       .  A
C432        N437   1.361       .  A
C432        C640   1.441       .  S
N433        C434   1.359       .  A
C434        N435   1.356       .  A
C434        C486   1.439   1_556  S
N435        C436   1.356       .  A
C436        N437   1.359       .  A
C436        C458   1.440       .  S
O438        C441   1.264       .  A
O438       Cd443   2.480       .  S
C439        C516   1.439       .  S
C439        O448   1.263       .  A
C439        O444   1.264       .  A
O440        C446   1.264       .  A
O440       Cd443   2.489       .  S
C441        C474   1.439       .  S
C441        O449   1.264       .  A
C442        C584   1.438       .  S
C442        O447   1.264       .  A
C442        O445   1.263   1_545  A
Cd443       O450   2.478       .  S
Cd443       O449   2.472       .  S
Cd443       O448   2.472       .  S
Cd443       O444   2.485       .  S
Cd443       O447   2.481   1_565  S
Cd443       O445   2.468       .  S
C446        C460   1.441       .  S
C446        O450   1.263       .  A
C451        C459   1.445       .  S
C451        C452   1.402       .  A
C451        C456   1.402       .  A
C452        C453   1.400       .  A
C452        H461   1.083       .  S
C453        C454   1.402       .  A
C453        H462   1.083       .  S
C454        C457   1.444       .  S
C454        C455   1.403       .  A
C455        C456   1.402       .  A
C455        H463   1.083   1_565  S
C456        H464   1.083   1_565  S
C457        C458   1.208       .  T
C459        C460   1.209       .  T
C465        C473   1.443       .  S
C465        C466   1.403       .  A
C465        C470   1.401       .  A
C466        C467   1.401       .  A
C466        H475   1.083       .  S
C467        C468   1.402       .  A
C467        H476   1.083       .  S
C468        C471   1.442       .  S
C468        C469   1.402       .  A
C469        C470   1.399       .  A
C469        H477   1.084       .  S
C470        H478   1.083       .  S
C471        C472   1.207       .  T
C473        C474   1.208       .  T
C479        C487   1.443       .  S
C479        C480   1.402       .  A
C479        C484   1.402       .  A
C480        C481   1.401       .  A
C480        H489   1.083       .  S
C481        C482   1.402       .  A
C481        H490   1.083       .  S
C482        C485   1.443       .  S
C482        C483   1.402       .  A
C483        C484   1.400       .  A
C483        H491   1.083       .  S
C484        H492   1.083       .  S
C485        C486   1.208       .  T
C487        C488   1.208       .  T
C493        C501   1.443   1_556  S
C493        C494   1.402       .  A
C493        C498   1.401       .  A
C494        C495   1.401       .  A
C494        H503   1.083       .  S
C495        C496   1.402       .  A
C495        H504   1.083       .  S
C496        C499   1.442       .  S
C496        C497   1.402       .  A
C497        C498   1.400       .  A
C497        H505   1.083       .  S
C498        H506   1.083       .  S
C499        C500   1.207       .  T
C501        C502   1.208       .  T
C507        C515   1.443       .  S
C507        C508   1.402       .  A
C507        C512   1.402       .  A
C508        C509   1.400       .  A
C508        H517   1.083       .  S
C509        C510   1.401       .  A
C509        H518   1.083       .  S
C510        C513   1.442       .  S
C510        C511   1.402       .  A
C511        C512   1.400       .  A
C511        H519   1.083       .  S
C512        H520   1.083       .  S
C513        C514   1.207       .  T
C515        C516   1.208       .  T
C521        C529   1.440       .  S
C521        C522   1.400       .  A
C521        C526   1.402       .  A
C522        C523   1.397       .  A
C522        H531   1.084       .  S
C523        C524   1.400       .  A
C523        H532   1.084       .  S
C524        C527   1.439       .  S
C524        C525   1.402       .  A
C525        C526   1.401       .  A
C525        H533   1.083       .  S
C526        H534   1.083       .  S
C527        C528   1.205       .  T
C529        C530   1.206       .  T
C535        C543   1.439       .  S
C535        C536   1.401   1_545  A
C535        C540   1.401       .  A
C536        C537   1.398       .  A
C536        H545   1.083       .  S
C537        C538   1.401       .  A
C537        H546   1.084       .  S
C538        C541   1.439       .  S
C538        C539   1.401   1_565  A
C539        C540   1.399       .  A
C539        H547   1.083       .  S
C540        H548   1.083       .  S
C541        C542   1.205       .  T
C543        C544   1.205       .  T
C549        C557   1.440       .  S
C549        C550   1.401       .  A
C549        C554   1.402       .  A
C550        C551   1.398       .  A
C550        H559   1.083       .  S
C551        C552   1.401       .  A
C551        H560   1.084       .  S
C552        C555   1.440       .  S
C552        C553   1.402       .  A
C553        C554   1.400       .  A
C553        H561   1.083       .  S
C554        H562   1.083       .  S
C555        C556   1.206       .  T
C557        C558   1.206       .  T
C563        C571   1.443       .  S
C563        C564   1.402       .  A
C563        C568   1.402       .  A
C564        C565   1.400       .  A
C564        H573   1.083       .  S
C565        C566   1.402       .  A
C565        H574   1.083       .  S
C566        C569   1.443       .  S
C566        C567   1.402       .  A
C567        C568   1.400       .  A
C567        H575   1.083       .  S
C568        H576   1.083       .  S
C569        C570   1.208       .  T
C571        C572   1.208       .  T
C577        C585   1.442       .  S
C577        C578   1.402       .  A
C577        C582   1.401       .  A
C578        C579   1.401       .  A
C578        H587   1.083       .  S
C579        C580   1.402       .  A
C579        H588   1.083       .  S
C580        C583   1.442       .  S
C580        C581   1.401       .  A
C581        C582   1.399       .  A
C581        H589   1.083       .  S
C582        H590   1.083       .  S
C583        C584   1.207       .  T
C585        C586   1.207       .  T
C591        C599   1.439       .  S
C591        C592   1.402       .  A
C591        C596   1.401       .  A
C592        C593   1.399       .  A
C592        H601   1.083       .  S
C593        C594   1.401       .  A
C593        H602   1.083       .  S
C594        C597   1.439       .  S
C594        C595   1.401       .  A
C595        C596   1.398       .  A
C595        H603   1.083       .  S
C596        H604   1.084       .  S
C597        C598   1.205       .  T
C599        C600   1.205       .  T
C605        C613   1.442   1_545  S
C605        C606   1.402       .  A
C605        C610   1.401       .  A
C606        C607   1.400       .  A
C606        H615   1.083       .  S
C607        C608   1.401       .  A
C607        H616   1.083       .  S
C608        C611   1.441       .  S
C608        C609   1.401       .  A
C609        C610   1.399       .  A
C609        H617   1.084       .  S
C610        H618   1.083       .  S
C611        C612   1.206       .  T
C613        C614   1.207       .  T
C619        C627   1.443       .  S
C619        C620   1.403       .  A
C619        C624   1.401       .  A
C620        C621   1.403       .  A
C620        H629   1.083       .  S
C621        C622   1.403       .  A
C621        H630   1.083       .  S
C622        C625   1.443       .  S
C622        C623   1.401       .  A
C623        C624   1.398       .  A
C623        H631   1.084       .  S
C624        H632   1.084       .  S
C625        C626   1.208       .  T
C627        C628   1.208       .  T
C633        C641   1.446       .  S
C633        C634   1.403       .  A
C633        C638   1.402   1_554  A
C634        C635   1.402       .  A
C634        H643   1.083       .  S
C635        C636   1.403   1_554  A
C635        H644   1.083       .  S
C636        C639   1.446       .  S
C636        C637   1.402       .  A
C637        C638   1.401       .  A
C637        H645   1.083       .  S
C638        H646   1.083   1_565  S
C639        C640   1.209       .  T
C641        C642   1.209       .  T
C647        C655   1.443       .  S
C647        C648   1.402       .  A
C647        C652   1.402       .  A
C648        C649   1.400       .  A
C648        H657   1.083       .  S
C649        C650   1.402       .  A
C649        H658   1.083       .  S
C650        C653   1.442       .  S
C650        C651   1.402       .  A
C651        C652   1.400       .  A
C651        H659   1.083   1_565  S
C652        H660   1.083   1_565  S
C653        C654   1.207       .  T
C655        C656   1.208       .  T
C661        C669   1.444       .  S
C661        C662   1.401       .  A
C661        C666   1.403       .  A
C662        C663   1.400       .  A
C662        H671   1.083   1_565  S
C663        C664   1.402       .  A
C663        H672   1.083   1_565  S
C664        C667   1.444       .  S
C664        C665   1.402       .  A
C665        C666   1.402       .  A
C665        H673   1.083       .  S
C666        H674   1.083       .  S
C667        C668   1.208       .  T
C669        C670   1.209       .  T
C675        C683   1.442       .  S
C675        C676   1.402       .  A
C675        C680   1.402       .  A
C676        C677   1.401       .  A
C676        H685   1.083       .  S
C677        C678   1.402       .  A
C677        H686   1.083       .  S
C678        C681   1.443       .  S
C678        C679   1.402       .  A
C679        C680   1.400       .  A
C679        H687   1.083       .  S
C680        H688   1.083       .  S
C681        C682   1.208       .  T
C683        C684   1.207       .  T
C689        C697   1.443       .  S
C689        C690   1.402       .  A
C689        C694   1.402       .  A
C690        C691   1.400       .  A
C690        H699   1.083       .  S
C691        C692   1.402       .  A
C691        H700   1.083       .  S
C692        C695   1.443       .  S
C692        C693   1.402       .  A
C693        C694   1.400       .  A
C693        H701   1.083       .  S
C694        H702   1.083       .  S
C695        C696   1.208       .  T
C697        C698   1.208       .  T
C703        C711   1.442       .  S
C703        C704   1.402       .  A
C703        C708   1.402       .  A
C704        C705   1.400       .  A
C704        H713   1.083       .  S
C705        C706   1.402       .  A
C705        H714   1.083       .  S
C706        C709   1.441       .  S
C706        C707   1.401       .  A
C707        C708   1.399       .  A
C707        H715   1.084       .  S
C708        H716   1.083       .  S
C709        C710   1.207       .  T
C711        C712   1.208       .  T
C717        C725   1.442       .  S
C717        C718   1.402       .  A
C717        C722   1.401       .  A
C718        C719   1.400       .  A
C718        H727   1.083       .  S
C719        C720   1.402       .  A
C719        H728   1.083       .  S
C720        C723   1.441       .  S
C720        C721   1.401       .  A
C721        C722   1.399       .  A
C721        H729   1.084       .  S
C722        H730   1.084       .  S
C723        C724   1.206       .  T
C725        C726   1.207       .  T
C731        C739   1.443       .  S
C731        C732   1.402       .  A
C731        C736   1.402   1_565  A
C732        C733   1.402       .  A
C732        H741   1.083       .  S
C733        C734   1.403   1_565  A
C733        H742   1.083       .  S
C734        C737   1.443       .  S
C734        C735   1.401       .  A
C735        C736   1.398       .  A
C735        H743   1.083       .  S
C736        H744   1.084   1_556  S
C737        C738   1.208       .  T
C739        C740   1.207       .  T
C745        C753   1.440       .  S
C745        C746   1.401       .  A
C745        C750   1.401       .  A
C746        C747   1.399       .  A
C746        H755   1.083       .  S
C747        C748   1.401       .  A
C747        H756   1.083       .  S
C748        C751   1.439       .  S
C748        C749   1.401       .  A
C749        C750   1.399       .  A
C749        H757   1.083       .  S
C750        H758   1.083       .  S
C751        C752   1.206       .  T
C753        C754   1.206       .  T
C759        C767   1.439       .  S
C759        C760   1.401       .  A
C759        C764   1.401       .  A
C760        C761   1.399       .  A
C760        H769   1.083       .  S
C761        C762   1.401       .  A
C761        H770   1.083       .  S
C762        C765   1.439   1_554  S
C762        C763   1.401       .  A
C763        C764   1.398       .  A
C763        H771   1.084       .  S
C764        H772   1.083       .  S
C765        C766   1.205       .  T
C767        C768   1.205       .  T
C773        C781   1.442       .  S
C773        C774   1.402       .  A
C773        C778   1.402       .  A
C774        C775   1.400       .  A
C774        H783   1.083       .  S
C775        C776   1.402       .  A
C775        H784   1.083       .  S
C776        C779   1.444       .  S
C776        C777   1.402       .  A
C777        C778   1.400       .  A
C777        H785   1.083       .  S
C778        H786   1.083       .  S
C779        C780   1.208       .  T
C781        C782   1.207       .  T
C787        C795   1.442       .  S
C787        C788   1.403       .  A
C787        C792   1.401       .  A
C788        C789   1.401       .  A
C788        H797   1.083       .  S
C789        C790   1.402       .  A
C789        H798   1.083       .  S
C790        C793   1.442       .  S
C790        C791   1.402       .  A
C791        C792   1.399       .  A
C791        H799   1.084       .  S
C792        H800   1.083       .  S
C793        C794   1.207       .  T
C795        C796   1.207       .  T
C801        C809   1.444       .  S
C801        C802   1.403       .  A
C801        C806   1.401       .  A
C802        C803   1.402       .  A
C802        H811   1.083       .  S
C803        C804   1.402       .  A
C803        H812   1.083       .  S
C804        C807   1.443       .  S
C804        C805   1.402       .  A
C805        C806   1.399       .  A
C805        H813   1.084       .  S
C806        H814   1.083       .  S
C807        C808   1.208       .  T
C809        C810   1.209   1_545  T
C815        C823   1.443       .  S
C815        C816   1.402       .  A
C815        C820   1.402       .  A
C816        C817   1.400       .  A
C816        H825   1.084       .  S
C817        C818   1.402       .  A
C817        H826   1.083       .  S
C818        C821   1.443       .  S
C818        C819   1.402       .  A
C819        C820   1.401       .  A
C819        H827   1.083       .  S
C820        H828   1.083       .  S
C821        C822   1.208       .  T
C823        C824   1.208       .  T
C829        C837   1.443       .  S
C829        C830   1.402       .  A
C829        C834   1.402       .  A
C830        C831   1.399       .  A
C830        H839   1.084       .  S
C831        C832   1.401       .  A
C831        H840   1.084       .  S
C832        C835   1.443       .  S
C832        C833   1.402       .  A
C833        C834   1.401       .  A
C833        H841   1.083       .  S
C834        H842   1.083       .  S
C835        C836   1.208       .  T
C837        C838   1.208       .  T
C843        C851   1.442       .  S
C843        C844   1.401       .  A
C843        C848   1.402       .  A
C844        C845   1.399       .  A
C844        H853   1.083       .  S
C845        C846   1.402       .  A
C845        H854   1.084       .  S
C846        C849   1.442       .  S
C846        C847   1.402       .  A
C847        C848   1.401       .  A
C847        H855   1.083       .  S
C848        H856   1.083       .  S
C849        C850   1.207       .  T
C851        C852   1.208       .  T
C857        C865   1.441       .  S
C857        C858   1.402       .  A
C857        C862   1.401       .  A
C858        C859   1.400       .  A
C858        H867   1.083       .  S
C859        C860   1.402       .  A
C859        H868   1.083       .  S
C860        C863   1.441       .  S
C860        C861   1.401       .  A
C861        C862   1.399       .  A
C861        H869   1.083       .  S
C862        H870   1.083       .  S
C863        C864   1.207       .  T
C865        C866   1.206       .  T
C871        C879   1.441   1_554  S
C871        C872   1.402       .  A
C871        C876   1.401       .  A
C872        C873   1.399       .  A
C872        H881   1.083       .  S
C873        C874   1.401       .  A
C873        H882   1.083       .  S
C874        C877   1.440       .  S
C874        C875   1.402       .  A
C875        C876   1.399       .  A
C875        H883   1.084       .  S
C876        H884   1.083       .  S
C877        C878   1.206       .  T
C879        C880   1.207       .  T
C885        C893   1.444       .  S
C885        C886   1.403       .  A
C885        C890   1.401       .  A
C886        C887   1.402       .  A
C886        H895   1.083       .  S
C887        C888   1.403       .  A
C887        H896   1.083       .  S
C888        C891   1.444       .  S
C888        C889   1.401       .  A
C889        C890   1.400       .  A
C889        H897   1.083       .  S
C890        H898   1.083       .  S
C891        C892   1.208       .  T
C893        C894   1.208       .  T
C899        C907   1.443       .  S
C899        C900   1.402       .  A
C899        C904   1.402       .  A
C900        C901   1.401       .  A
C900        H909   1.083       .  S
C901        C902   1.402       .  A
C901        H910   1.083       .  S
C902        C905   1.444       .  S
C902        C903   1.402       .  A
C903        C904   1.400       .  A
C903        H911   1.083       .  S
C904        H912   1.083       .  S
C905        C906   1.208       .  T
C907        C908   1.208       .  T
C913        C921   1.445       .  S
C913        C914   1.402       .  A
C913        C918   1.402       .  A
C914        C915   1.401       .  A
C914        H923   1.083       .  S
C915        C916   1.403       .  A
C915        H924   1.083       .  S
C916        C919   1.445       .  S
C916        C917   1.402       .  A
C917        C918   1.401       .  A
C917        H925   1.083       .  S
C918        H926   1.083       .  S
C919        C920   1.209       .  T
C921        C922   1.209       .  T
C927        C935   1.441       .  S
C927        C928   1.402       .  A
C927        C932   1.401       .  A
C928        C929   1.401       .  A
C928        H937   1.083       .  S
C929        C930   1.402       .  A
C929        H938   1.083       .  S
C930        C933   1.442       .  S
C930        C931   1.401       .  A
C931        C932   1.398       .  A
C931        H939   1.084       .  S
C932        H940   1.084       .  S
C933        C934   1.207       .  T
C935        C936   1.207       .  T
C941        C949   1.440       .  S
C941        C942   1.401       .  A
C941        C946   1.402       .  A
C942        C943   1.398       .  A
C942        H951   1.084       .  S
C943        C944   1.401       .  A
C943        H952   1.084       .  S
C944        C947   1.441       .  S
C944        C945   1.402       .  A
C945        C946   1.401       .  A
C945        H953   1.083       .  S
C946        H954   1.083       .  S
C947        C948   1.207       .  T
C949        C950   1.206       .  T
C955        C963   1.443       .  S
C955        C956   1.403       .  A
C955        C960   1.401       .  A
C956        C957   1.402       .  A
C956        H965   1.083       .  S
C957        C958   1.402       .  A
C957        H966   1.083       .  S
C958        C961   1.443       .  S
C958        C959   1.401       .  A
C959        C960   1.399       .  A
C959        H967   1.083       .  S
C960        H968   1.083       .  S
C961        C962   1.208       .  T
C963        C964   1.208       .  T
C969        C977   1.443       .  S
C969        C970   1.402       .  A
C969        C974   1.402       .  A
C970        C971   1.400       .  A
C970        H979   1.083       .  S
C971        C972   1.402       .  A
C971        H980   1.083       .  S
C972        C975   1.442       .  S
C972        C973   1.402       .  A
C973        C974   1.400       .  A
C973        H981   1.083       .  S
C974        H982   1.083       .  S
C975        C976   1.207       .  T
C977        C978   1.208       .  T
C983        C991   1.440       .  S
C983        C984   1.401       .  A
C983        C988   1.402       .  A
C984        C985   1.398       .  A
C984        H993   1.084       .  S
C985        C986   1.400       .  A
C985        H994   1.084       .  S
C986        C989   1.441       .  S
C986        C987   1.403       .  A
C987        C988   1.401       .  A
C987        H995   1.083       .  S
C988        H996   1.083       .  S
C989        C990   1.207       .  T
C991        C992   1.206       .  T
C997       C1005   1.442       .  S
C997        C998   1.402       .  A
C997       C1002   1.402       .  A
C998        C999   1.400       .  A
C998       H1007   1.083       .  S
C999       C1000   1.402       .  A
C999       H1008   1.083       .  S
C1000      C1003   1.442       .  S
C1000      C1001   1.401       .  A
C1001      C1002   1.399       .  A
C1001      H1009   1.083       .  S
C1002      H1010   1.083       .  S
C1003      C1004   1.207       .  T
C1005      C1006   1.207       .  T
C1011      C1019   1.438       .  S
C1011      C1012   1.402       .  A
C1011      C1016   1.401       .  A
C1012      C1013   1.400       .  A
C1012      H1021   1.083       .  S
C1013      C1014   1.402       .  A
C1013      H1022   1.083       .  S
C1014      C1017   1.439       .  S
C1014      C1015   1.401       .  A
C1015      C1016   1.397       .  A
C1015      H1023   1.084       .  S
C1016      H1024   1.083       .  S
C1017      C1018   1.206       .  T
C1019      C1020   1.205       .  T
C1025      C1033   1.440       .  S
C1025      C1026   1.401       .  A
C1025      C1030   1.402       .  A
C1026      C1027   1.398       .  A
C1026      H1035   1.084       .  S
C1027      C1028   1.401       .  A
C1027      H1036   1.084       .  S
C1028      C1031   1.440       .  S
C1028      C1029   1.402       .  A
C1029      C1030   1.400       .  A
C1029      H1037   1.083       .  S
C1030      H1038   1.083       .  S
C1031      C1032   1.206       .  T
C1033      C1034   1.206       .  T
C1039      C1047   1.441       .  S
C1039      C1040   1.401       .  A
C1039      C1044   1.401       .  A
C1040      C1041   1.399       .  A
C1040      H1049   1.083       .  S
C1041      C1042   1.401       .  A
C1041      H1050   1.083       .  S
C1042      C1045   1.441       .  S
C1042      C1043   1.401       .  A
C1043      C1044   1.399       .  A
C1043      H1051   1.083       .  S
C1044      H1052   1.083       .  S
C1045      C1046   1.206       .  T
C1047      C1048   1.206       .  T
C1053      C1061   1.439       .  S
C1053      C1054   1.401       .  A
C1053      C1058   1.401       .  A
C1054      C1055   1.399       .  A
C1054      H1063   1.084       .  S
C1055      C1056   1.401       .  A
C1055      H1064   1.083       .  S
C1056      C1059   1.439       .  S
C1056      C1057   1.401       .  A
C1057      C1058   1.399       .  A
C1057      H1065   1.083       .  S
C1058      H1066   1.083       .  S
C1059      C1060   1.206       .  T
C1061      C1062   1.206       .  T
C1067      C1075   1.443       .  S
C1067      C1068   1.402       .  A
C1067      C1072   1.402   1_554  A
C1068      C1069   1.400       .  A
C1068      H1077   1.083       .  S
C1069      C1070   1.401   1_554  A
C1069      H1078   1.083       .  S
C1070      C1073   1.443       .  S
C1070      C1071   1.402       .  A
C1071      C1072   1.400       .  A
C1071      H1079   1.083       .  S
C1072      H1080   1.083       .  S
C1073      C1074   1.208       .  T
C1075      C1076   1.208       .  T
C1081      C1089   1.438       .  S
C1081      C1082   1.402       .  A
C1081      C1086   1.400       .  A
C1082      C1083   1.400       .  A
C1082      H1091   1.083       .  S
C1083      C1084   1.401       .  A
C1083      H1092   1.083       .  S
C1084      C1087   1.439       .  S
C1084      C1085   1.401       .  A
C1085      C1086   1.397       .  A
C1085      H1093   1.084       .  S
C1086      H1094   1.084       .  S
C1087      C1088   1.205       .  T
C1089      C1090   1.205       .  T
C1095      C1103   1.442       .  S
C1095      C1096   1.403       .  A
C1095      C1100   1.400       .  A
C1096      C1097   1.402       .  A
C1096      H1105   1.083       .  S
C1097      C1098   1.402       .  A
C1097      H1106   1.083       .  S
C1098      C1101   1.441       .  S
C1098      C1099   1.401       .  A
C1099      C1100   1.397       .  A
C1099      H1107   1.084       .  S
C1100      H1108   1.084       .  S
C1101      C1102   1.207       .  T
C1103      C1104   1.207       .  T
C1109      C1117   1.443       .  S
C1109      C1110   1.402       .  A
C1109      C1114   1.402       .  A
C1110      C1111   1.400       .  A
C1110      H1119   1.083       .  S
C1111      C1112   1.402       .  A
C1111      H1120   1.083       .  S
C1112      C1115   1.443       .  S
C1112      C1113   1.402       .  A
C1113      C1114   1.400       .  A
C1113      H1121   1.083       .  S
C1114      H1122   1.083       .  S
C1115      C1116   1.208       .  T
C1117      C1118   1.208       .  T
C1123      C1131   1.439       .  S
C1123      C1124   1.401       .  A
C1123      C1128   1.401       .  A
C1124      C1125   1.398       .  A
C1124      H1133   1.083       .  S
C1125      C1126   1.401       .  A
C1125      H1134   1.083       .  S
C1126      C1129   1.439       .  S
C1126      C1127   1.402       .  A
C1127      C1128   1.399       .  A
C1127      H1135   1.083       .  S
C1128      H1136   1.083       .  S
C1129      C1130   1.206       .  T
C1131      C1132   1.205       .  T
C1137      C1145   1.441       .  S
C1137      C1138   1.401       .  A
C1137      C1142   1.402       .  A
C1138      C1139   1.398       .  A
C1138      H1147   1.084       .  S
C1139      C1140   1.401       .  A
C1139      H1148   1.084       .  S
C1140      C1143   1.441       .  S
C1140      C1141   1.402       .  A
C1141      C1142   1.401       .  A
C1141      H1149   1.083       .  S
C1142      H1150   1.083       .  S
C1143      C1144   1.207       .  T
C1145      C1146   1.207       .  T
C1151      C1159   1.439       .  S
C1151      C1152   1.401       .  A
C1151      C1156   1.402       .  A
C1152      C1153   1.398       .  A
C1152      H1161   1.084       .  S
C1153      C1154   1.401       .  A
C1153      H1162   1.084       .  S
C1154      C1157   1.439   1_556  S
C1154      C1155   1.401       .  A
C1155      C1156   1.399       .  A
C1155      H1163   1.083       .  S
C1156      H1164   1.083       .  S
C1157      C1158   1.206       .  T
C1159      C1160   1.205       .  T
C1165      C1173   1.439       .  S
C1165      C1166   1.401       .  A
C1165      C1170   1.402       .  A
C1166      C1167   1.399       .  A
C1166      H1175   1.083       .  S
C1167      C1168   1.401       .  A
C1167      H1176   1.083       .  S
C1168      C1171   1.440       .  S
C1168      C1169   1.402       .  A
C1169      C1170   1.399       .  A
C1169      H1177   1.083       .  S
C1170      H1178   1.084       .  S
C1171      C1172   1.206       .  T
C1173      C1174   1.205       .  T
C1179      C1187   1.443       .  S
C1179      C1180   1.401       .  A
C1179      C1184   1.402       .  A
C1180      C1181   1.399       .  A
C1180      H1189   1.083       .  S
C1181      C1182   1.401       .  A
C1181      H1190   1.083       .  S
C1182      C1185   1.442       .  S
C1182      C1183   1.402       .  A
C1183      C1184   1.401       .  A
C1183      H1191   1.083       .  S
C1184      H1192   1.083       .  S
C1185      C1186   1.207       .  T
C1187      C1188   1.208       .  T
C1193      C1201   1.439       .  S
C1193      C1194   1.402       .  A
C1193      C1198   1.401       .  A
C1194      C1195   1.399       .  A
C1194      H1203   1.083       .  S
C1195      C1196   1.401       .  A
C1195      H1204   1.083       .  S
C1196      C1199   1.439       .  S
C1196      C1197   1.401       .  A
C1197      C1198   1.398       .  A
C1197      H1205   1.084       .  S
C1198      H1206   1.084       .  S
C1199      C1200   1.206       .  T
C1201      C1202   1.205       .  T
C1207      C1215   1.442       .  S
C1207      C1208   1.402       .  A
C1207      C1212   1.402       .  A
C1208      C1209   1.400       .  A
C1208      H1217   1.083       .  S
C1209      C1210   1.402       .  A
C1209      H1218   1.083       .  S
C1210      C1213   1.441       .  S
C1210      C1211   1.402       .  A
C1211      C1212   1.399       .  A
C1211      H1219   1.084       .  S
C1212      H1220   1.083       .  S
C1213      C1214   1.207       .  T
C1215      C1216   1.207       .  T
C1221      C1229   1.443       .  S
C1221      C1222   1.402       .  A
C1221      C1226   1.402       .  A
C1222      C1223   1.400       .  A
C1222      H1231   1.083       .  S
C1223      C1224   1.402       .  A
C1223      H1232   1.083       .  S
C1224      C1227   1.443       .  S
C1224      C1225   1.402       .  A
C1225      C1226   1.400       .  A
C1225      H1233   1.083       .  S
C1226      H1234   1.083       .  S
C1227      C1228   1.208       .  T
C1229      C1230   1.208       .  T
C1235      C1243   1.441       .  S
C1235      C1236   1.403       .  A
C1235      C1240   1.400       .  A
C1236      C1237   1.401       .  A
C1236      H1245   1.083       .  S
C1237      C1238   1.402       .  A
C1237      H1246   1.083       .  S
C1238      C1241   1.440       .  S
C1238      C1239   1.401       .  A
C1239      C1240   1.397       .  A
C1239      H1247   1.084       .  S
C1240      H1248   1.084       .  S
C1241      C1242   1.206       .  T
C1243      C1244   1.207       .  T
C1249      C1257   1.441       .  S
C1249      C1250   1.401       .  A
C1249      C1254   1.402   1_655  A
C1250      C1251   1.399       .  A
C1250      H1259   1.083       .  S
C1251      C1252   1.401       .  A
C1251      H1260   1.083       .  S
C1252      C1255   1.441       .  S
C1252      C1253   1.401   1_655  A
C1253      C1254   1.399       .  A
C1253      H1261   1.083       .  S
C1254      H1262   1.083       .  S
C1255      C1256   1.206       .  T
C1257      C1258   1.206       .  T
C1263      C1271   1.440       .  S
C1263      C1264   1.401   1_455  A
C1263      C1268   1.402       .  A
C1264      C1265   1.399       .  A
C1264      H1273   1.083       .  S
C1265      C1266   1.401   1_655  A
C1265      H1274   1.083       .  S
C1266      C1269   1.440       .  S
C1266      C1267   1.401       .  A
C1267      C1268   1.400       .  A
C1267      H1275   1.083       .  S
C1268      H1276   1.083       .  S
C1269      C1270   1.206       .  T
C1271      C1272   1.206   1_455  T
C1277      C1285   1.440       .  S
C1277      C1278   1.401       .  A
C1277      C1282   1.402       .  A
C1278      C1279   1.398       .  A
C1278      H1287   1.083       .  S
C1279      C1280   1.401       .  A
C1279      H1288   1.084       .  S
C1280      C1283   1.440       .  S
C1280      C1281   1.402       .  A
C1281      C1282   1.400       .  A
C1281      H1289   1.083       .  S
C1282      H1290   1.083       .  S
C1283      C1284   1.206       .  T
C1285      C1286   1.206       .  T
C1291      C1299   1.441       .  S
C1291      C1292   1.402       .  A
C1291      C1296   1.401       .  A
C1292      C1293   1.400       .  A
C1292      H1301   1.083       .  S
C1293      C1294   1.402       .  A
C1293      H1302   1.083       .  S
C1294      C1297   1.441       .  S
C1294      C1295   1.401       .  A
C1295      C1296   1.399       .  A
C1295      H1303   1.083       .  S
C1296      H1304   1.083       .  S
C1297      C1298   1.207       .  T
C1299      C1300   1.207       .  T
C1305      C1313   1.441       .  S
C1305      C1306   1.401       .  A
C1305      C1310   1.402       .  A
C1306      C1307   1.399       .  A
C1306      H1315   1.083       .  S
C1307      C1308   1.402       .  A
C1307      H1316   1.083       .  S
C1308      C1311   1.441       .  S
C1308      C1309   1.401       .  A
C1309      C1310   1.400       .  A
C1309      H1317   1.083       .  S
C1310      H1318   1.083       .  S
C1311      C1312   1.207       .  T
C1313      C1314   1.206       .  T
C1319      C1327   1.439       .  S
C1319      C1320   1.400       .  A
C1319      C1324   1.402       .  A
C1320      C1321   1.398       .  A
C1320      H1329   1.084       .  S
C1321      C1322   1.401       .  A
C1321      H1330   1.084       .  S
C1322      C1325   1.439       .  S
C1322      C1323   1.401       .  A
C1323      C1324   1.399       .  A
C1323      H1331   1.083       .  S
C1324      H1332   1.083       .  S
C1325      C1326   1.205       .  T
C1327      C1328   1.205       .  T
C1333      C1341   1.441       .  S
C1333      C1334   1.401       .  A
C1333      C1338   1.402       .  A
C1334      C1335   1.399       .  A
C1334      H1343   1.083       .  S
C1335      C1336   1.401       .  A
C1335      H1344   1.083       .  S
C1336      C1339   1.441       .  S
C1336      C1337   1.402       .  A
C1337      C1338   1.400       .  A
C1337      H1345   1.083       .  S
C1338      H1346   1.083       .  S
C1339      C1340   1.206       .  T
C1341      C1342   1.207       .  T
C1347      C1355   1.438       .  S
C1347      C1348   1.401       .  A
C1347      C1352   1.401       .  A
C1348      C1349   1.397       .  A
C1348      H1357   1.084       .  S
C1349      C1350   1.401       .  A
C1349      H1358   1.084       .  S
C1350      C1353   1.438       .  S
C1350      C1351   1.401       .  A
C1351      C1352   1.399       .  A
C1351      H1359   1.083       .  S
C1352      H1360   1.083       .  S
C1353      C1354   1.205       .  T
C1355      C1356   1.205       .  T
C1361      C1369   1.441       .  S
C1361      C1362   1.401       .  A
C1361      C1366   1.402       .  A
C1362      C1363   1.399       .  A
C1362      H1371   1.084       .  S
C1363      C1364   1.401       .  A
C1363      H1372   1.083       .  S
C1364      C1367   1.441       .  S
C1364      C1365   1.402       .  A
C1365      C1366   1.400       .  A
C1365      H1373   1.083       .  S
C1366      H1374   1.083       .  S
C1367      C1368   1.207   1_455  T
C1369      C1370   1.206       .  T
C1375      C1383   1.439       .  S
C1375      C1376   1.402       .  A
C1375      C1380   1.401       .  A
C1376      C1377   1.400       .  A
C1376      H1385   1.083       .  S
C1377      C1378   1.402       .  A
C1377      H1386   1.083   1_554  S
C1378      C1381   1.440   1_554  S
C1378      C1379   1.401       .  A
C1379      C1380   1.398       .  A
C1379      H1387   1.083       .  S
C1380      H1388   1.084       .  S
C1381      C1382   1.206       .  T
C1383      C1384   1.205       .  T
C1389      C1397   1.440       .  S
C1389      C1390   1.402       .  A
C1389      C1394   1.401       .  A
C1390      C1391   1.400       .  A
C1390      H1399   1.083       .  S
C1391      C1392   1.402       .  A
C1391      H1400   1.083       .  S
C1392      C1395   1.439       .  S
C1392      C1393   1.401       .  A
C1393      C1394   1.398       .  A
C1393      H1401   1.084       .  S
C1394      H1402   1.084       .  S
C1395      C1396   1.205       .  T
C1397      C1398   1.206       .  T
C1403      C1411   1.440       .  S
C1403      C1404   1.401       .  A
C1403      C1408   1.401       .  A
C1404      C1405   1.399       .  A
C1404      H1413   1.083       .  S
C1405      C1406   1.401       .  A
C1405      H1414   1.083       .  S
C1406      C1409   1.440       .  S
C1406      C1407   1.401       .  A
C1407      C1408   1.399       .  A
C1407      H1415   1.083       .  S
C1408      H1416   1.083       .  S
C1409      C1410   1.206       .  T
C1411      C1412   1.206       .  T
C1417      C1425   1.439       .  S
C1417      C1418   1.402       .  A
C1417      C1422   1.401       .  A
C1418      C1419   1.399       .  A
C1418      H1427   1.084       .  S
C1419      C1420   1.401       .  A
C1419      H1428   1.083       .  S
C1420      C1423   1.439       .  S
C1420      C1421   1.401       .  A
C1421      C1422   1.399       .  A
C1421      H1429   1.084       .  S
C1422      H1430   1.083       .  S
C1423      C1424   1.205       .  T
C1425      C1426   1.206       .  T
C1431      C1439   1.438       .  S
C1431      C1432   1.400       .  A
C1431      C1436   1.402       .  A
C1432      C1433   1.396       .  A
C1432      H1441   1.084       .  S
C1433      C1434   1.400       .  A
C1433      H1442   1.084       .  S
C1434      C1437   1.437       .  S
C1434      C1435   1.402       .  A
C1435      C1436   1.400       .  A
C1435      H1443   1.083       .  S
C1436      H1444   1.083       .  S
C1437      C1438   1.204       .  T
C1439      C1440   1.205       .  T
C1445      C1453   1.441       .  S
C1445      C1446   1.402       .  A
C1445      C1450   1.401       .  A
C1446      C1447   1.399       .  A
C1446      H1455   1.083       .  S
C1447      C1448   1.401       .  A
C1447      H1456   1.083       .  S
C1448      C1451   1.440       .  S
C1448      C1449   1.402       .  A
C1449      C1450   1.400       .  A
C1449      H1457   1.083       .  S
C1450      H1458   1.083       .  S
C1451      C1452   1.206       .  T
C1453      C1454   1.207       .  T
C1459      C1467   1.441       .  S
C1459      C1460   1.401   1_655  A
C1459      C1464   1.402       .  A
C1460      C1461   1.398   1_455  A
C1460      H1469   1.083       .  S
C1461      C1462   1.401       .  A
C1461      H1470   1.084   1_655  S
C1462      C1465   1.441       .  S
C1462      C1463   1.402       .  A
C1463      C1464   1.400       .  A
C1463      H1471   1.083       .  S
C1464      H1472   1.083       .  S
C1465      C1466   1.206       .  T
C1467      C1468   1.206       .  T
C1473      C1481   1.442       .  S
C1473      C1474   1.402       .  A
C1473      C1478   1.401       .  A
C1474      C1475   1.400       .  A
C1474      H1483   1.083       .  S
C1475      C1476   1.402       .  A
C1475      H1484   1.083       .  S
C1476      C1479   1.442       .  S
C1476      C1477   1.402       .  A
C1477      C1478   1.400       .  A
C1477      H1485   1.083       .  S
C1478      H1486   1.083       .  S
C1479      C1480   1.207       .  T
C1481      C1482   1.207       .  T
C1487      C1495   1.442       .  S
C1487      C1488   1.401   1_554  A
C1487      C1492   1.402   1_655  A
C1488      C1489   1.399       .  A
C1488      H1497   1.083       .  S
C1489      C1490   1.402       .  A
C1489      H1498   1.083       .  S
C1490      C1493   1.442       .  S
C1490      C1491   1.402   1_656  A
C1491      C1492   1.400       .  A
C1491      H1499   1.083       .  S
C1492      H1500   1.083       .  S
C1493      C1494   1.207       .  T
C1495      C1496   1.207       .  T
C1501      C1509   1.443       .  S
C1501      C1502   1.402   1_655  A
C1501      C1506   1.402       .  A
C1502      C1503   1.400       .  A
C1502      H1511   1.083       .  S
C1503      C1504   1.402   1_455  A
C1503      H1512   1.083       .  S
C1504      C1507   1.442       .  S
C1504      C1505   1.402       .  A
C1505      C1506   1.400       .  A
C1505      H1513   1.083       .  S
C1506      H1514   1.083       .  S
C1507      C1508   1.207       .  T
C1509      C1510   1.208       .  T
C1515      C1523   1.440       .  S
C1515      C1516   1.401       .  A
C1515      C1520   1.401       .  A
C1516      C1517   1.399       .  A
C1516      H1525   1.084       .  S
C1517      C1518   1.401       .  A
C1517      H1526   1.083       .  S
C1518      C1521   1.441       .  S
C1518      C1519   1.402       .  A
C1519      C1520   1.400       .  A
C1519      H1527   1.083       .  S
C1520      H1528   1.083       .  S
C1521      C1522   1.207       .  T
C1523      C1524   1.206       .  T
C1529      C1537   1.440       .  S
C1529      C1530   1.401       .  A
C1529      C1534   1.402       .  A
C1530      C1531   1.399       .  A
C1530      H1539   1.083       .  S
C1531      C1532   1.402       .  A
C1531      H1540   1.084       .  S
C1532      C1535   1.441       .  S
C1532      C1533   1.402       .  A
C1533      C1534   1.400       .  A
C1533      H1541   1.083       .  S
C1534      H1542   1.083       .  S
C1535      C1536   1.207       .  T
C1537      C1538   1.206       .  T
C1543      C1551   1.444       .  S
C1543      C1544   1.402       .  A
C1543      C1548   1.402       .  A
C1544      C1545   1.402       .  A
C1544      H1553   1.083       .  S
C1545      C1546   1.403       .  A
C1545      H1554   1.083       .  S
C1546      C1549   1.444       .  S
C1546      C1547   1.402       .  A
C1547      C1548   1.400       .  A
C1547      H1555   1.083       .  S
C1548      H1556   1.083       .  S
C1549      C1550   1.209       .  T
C1551      C1552   1.208       .  T
C1557      C1565   1.445       .  S
C1557      C1558   1.403       .  A
C1557      C1562   1.402       .  A
C1558      C1559   1.402       .  A
C1558      H1567   1.083       .  S
C1559      C1560   1.402       .  A
C1559      H1568   1.083       .  S
C1560      C1563   1.445       .  S
C1560      C1561   1.402       .  A
C1561      C1562   1.400       .  A
C1561      H1569   1.083       .  S
C1562      H1570   1.083       .  S
C1563      C1564   1.209       .  T
C1565      C1566   1.209       .  T
C1571      C1579   1.440       .  S
C1571      C1572   1.401       .  A
C1571      C1576   1.402       .  A
C1572      C1573   1.398       .  A
C1572      H1581   1.084       .  S
C1573      C1574   1.401       .  A
C1573      H1582   1.084       .  S
C1574      C1577   1.441       .  S
C1574      C1575   1.402       .  A
C1575      C1576   1.401       .  A
C1575      H1583   1.083       .  S
C1576      H1584   1.083       .  S
C1577      C1578   1.206       .  T
C1579      C1580   1.206       .  T
C1585      C1593   1.443       .  S
C1585      C1586   1.402       .  A
C1585      C1590   1.401       .  A
C1586      C1587   1.401       .  A
C1586      H1595   1.083       .  S
C1587      C1588   1.402       .  A
C1587      H1596   1.083       .  S
C1588      C1591   1.443       .  S
C1588      C1589   1.402       .  A
C1589      C1590   1.400       .  A
C1589      H1597   1.083       .  S
C1590      H1598   1.083       .  S
C1591      C1592   1.208       .  T
C1593      C1594   1.208       .  T
C1599      C1607   1.442       .  S
C1599      C1600   1.402   1_455  A
C1599      C1604   1.402       .  A
C1600      C1601   1.400   1_655  A
C1600      H1609   1.083       .  S
C1601      C1602   1.402       .  A
C1601      H1610   1.083   1_455  S
C1602      C1605   1.442       .  S
C1602      C1603   1.402       .  A
C1603      C1604   1.400       .  A
C1603      H1611   1.083       .  S
C1604      H1612   1.083       .  S
C1605      C1606   1.207       .  T
C1607      C1608   1.207       .  T
C1613      C1621   1.440       .  S
C1613      C1614   1.402       .  A
C1613      C1618   1.401       .  A
C1614      C1615   1.399       .  A
C1614      H1623   1.083       .  S
C1615      C1616   1.401       .  A
C1615      H1624   1.083       .  S
C1616      C1619   1.440       .  S
C1616      C1617   1.402       .  A
C1617      C1618   1.399       .  A
C1617      H1625   1.083       .  S
C1618      H1626   1.083       .  S
C1619      C1620   1.206       .  T
C1621      C1622   1.206       .  T
C1627      C1635   1.440   1_556  S
C1627      C1628   1.401       .  A
C1627      C1632   1.402       .  A
C1628      C1629   1.398       .  A
C1628      H1637   1.083       .  S
C1629      C1630   1.401       .  A
C1629      H1638   1.084       .  S
C1630      C1633   1.440       .  S
C1630      C1631   1.401       .  A
C1631      C1632   1.400       .  A
C1631      H1639   1.083       .  S
C1632      H1640   1.083       .  S
C1633      C1634   1.206       .  T
C1635      C1636   1.206       .  T
C1641      C1649   1.443       .  S
C1641      C1642   1.402       .  A
C1641      C1646   1.402       .  A
C1642      C1643   1.399       .  A
C1642      H1651   1.084       .  S
C1643      C1644   1.401       .  A
C1643      H1652   1.083       .  S
C1644      C1647   1.443       .  S
C1644      C1645   1.403       .  A
C1645      C1646   1.402       .  A
C1645      H1653   1.083       .  S
C1646      H1654   1.083       .  S
C1647      C1648   1.208       .  T
C1649      C1650   1.208       .  T
C1655      C1663   1.445       .  S
C1655      C1656   1.402       .  A
C1655      C1660   1.402       .  A
C1656      C1657   1.401       .  A
C1656      H1665   1.083       .  S
C1657      C1658   1.402       .  A
C1657      H1666   1.083       .  S
C1658      C1661   1.445       .  S
C1658      C1659   1.402       .  A
C1659      C1660   1.401       .  A
C1659      H1667   1.083       .  S
C1660      H1668   1.083       .  S
C1661      C1662   1.209       .  T
C1663      C1664   1.209       .  T
C1669      C1677   1.441       .  S
C1669      C1670   1.402       .  A
C1669      C1674   1.401       .  A
C1670      C1671   1.400       .  A
C1670      H1679   1.083       .  S
C1671      C1672   1.402       .  A
C1671      H1680   1.083       .  S
C1672      C1675   1.442       .  S
C1672      C1673   1.402       .  A
C1673      C1674   1.400       .  A
C1673      H1681   1.083       .  S
C1674      H1682   1.083       .  S
C1675      C1676   1.207       .  T
C1677      C1678   1.207       .  T
C1683      C1691   1.442       .  S
C1683      C1684   1.401       .  A
C1683      C1688   1.402       .  A
C1684      C1685   1.400       .  A
C1684      H1693   1.083       .  S
C1685      C1686   1.402       .  A
C1685      H1694   1.083       .  S
C1686      C1689   1.442       .  S
C1686      C1687   1.402       .  A
C1687      C1688   1.400       .  A
C1687      H1695   1.083       .  S
C1688      H1696   1.083       .  S
C1689      C1690   1.207       .  T
C1691      C1692   1.207   1_455  T
C1697      C1705   1.447       .  S
C1697      C1698   1.402       .  A
C1697      C1702   1.403       .  A
C1698      C1699   1.401       .  A
C1698      H1707   1.083       .  S
C1699      C1700   1.402       .  A
C1699      H1708   1.083       .  S
C1700      C1703   1.447       .  S
C1700      C1701   1.403       .  A
C1701      C1702   1.402       .  A
C1701      H1709   1.083       .  S
C1702      H1710   1.083       .  S
C1703      C1704   1.210       .  T
C1705      C1706   1.210       .  T
