geometry optimzed in LAMMPS
_audit_creation_date              2020-11-30 
_audit_creation_method            'lammps2cif' 
_symmetry_space_group_name_H-M    'P1' 
_symmetry_Int_Tables_number       1 
_symmetry_cell_setting            triclinic 
loop_ 
_symmetry_equiv_pos_as_xyz 
  x,y,z 
_cell_length_a                    39.58349583 
_cell_length_b                    39.42817234470242 
_cell_length_c                    39.42616487617937 
_cell_angle_alpha                 90.04327409790217 
_cell_angle_beta                  89.58678688726238 
_cell_angle_gamma                 90.04557738623713 
loop_ 
_atom_site_label 
_atom_site_type_symbol 
_atom_site_fract_x 
_atom_site_fract_y 
_atom_site_fract_z 
_atom_site_charge 
O1          O  0.47094628  0.53916510  0.97504583    -0.71400
O2          O  0.54083079  0.46558720  0.97012972    -0.72400
O3          O  0.46959517  0.46692007  0.96860363    -0.61000
O4          O  0.54247314  0.53767092  0.97655275    -0.69400
O5          O  0.54239118  0.53066661  0.03241147    -0.69000
O6          O  0.46596343  0.46361112  0.02473557    -0.60200
O7          O  0.53703617  0.45866916  0.02591515    -0.72800
O8          O  0.46987277  0.53489103  0.03120436    -0.71500
Cu9        Cu  0.50603478  0.50261116  0.97064562     1.04600
Cu10       Cu  0.50384043  0.49694819  0.03056312     1.04300
C11         C  0.45925644  0.54847223  0.00388267     0.94800
C12         C  0.54905877  0.44976440  0.99712290     0.93900
C13         C  0.45638705  0.45409554  0.99534080     0.86100
C14         C  0.55429584  0.54491449  0.00575376     0.92300
O15         O  0.46936499  0.03530720  0.44472616    -0.71400
O16         O  0.53074355  0.03457839  0.52587020    -0.72400
O17         O  0.54069945  0.03375548  0.45419900    -0.61000
O18         O  0.45949555  0.03617771  0.51610563    -0.69400
O19         O  0.46174484  0.98012145  0.52081728    -0.69000
O20         O  0.53577271  0.97781442  0.45009798    -0.60200
O21         O  0.53383976  0.97846975  0.52267265    -0.72800
O22         O  0.46355602  0.97945329  0.44873444    -0.71500
Cu23       Cu  0.50017376  0.03692673  0.48520384     1.04600
Cu24       Cu  0.49873996  0.97693641  0.48559100     1.04300
C25         C  0.45577628  0.00765302  0.43481355     0.94800
C26         C  0.54258616  0.00644255  0.53656004     0.93900
C27         C  0.55035789  0.00550745  0.44158127     0.86100
C28         C  0.44827052  0.00853874  0.52874553     0.92300
O29         O  0.98644979  0.46270763  0.45245253    -0.71400
O30         O  0.99785992  0.53500129  0.52490836    -0.72400
O31         O  0.98575406  0.53590268  0.45382902    -0.61000
O32         O  0.99856082  0.46298602  0.52433759    -0.69400
O33         O  0.05355594  0.46283546  0.51291337    -0.69000
O34         O  0.04095230  0.53643732  0.44345284    -0.60200
O35         O  0.05297029  0.53588552  0.51417620    -0.72800
O36         O  0.04148394  0.46504166  0.44154231    -0.71500
Cu37       Cu  0.99017588  0.49902198  0.48919202     1.04600
Cu38       Cu  0.04913136  0.49995754  0.47780217     1.04300
C39         C  0.01226143  0.45299771  0.43521583     0.94800
C40         C  0.02729193  0.54711086  0.53050848     0.93900
C41         C  0.01134248  0.54789484  0.43787002     0.86100
C42         C  0.02823650  0.45157353  0.52979974     0.92300
N43         N  0.32780495  0.24575223  0.98856568    -0.25800
N44         N  0.29526866  0.23817761  0.98943641    -0.33600
C45         C  0.29154467  0.20434398  0.98796225     0.02600
C46         C  0.32331870  0.18971355  0.98610429     0.08600
C47         C  0.34568364  0.21674492  0.98640835    -0.04500
H48         H  0.26738017  0.19155666  0.98875016     0.09300
H49         H  0.37298015  0.21537148  0.98598182     0.10500
Cu50       Cu  0.25701391  0.27359602  0.99464412     0.44200
Cu51       Cu  0.34588553  0.29523583  0.99296544     0.42000
Cu52       Cu  0.28238210  0.35610742  0.02224281     0.43900
N53         N  0.22317679  0.31252102  0.00405908    -0.33200
N54         N  0.23235154  0.34258810  0.01558533    -0.27400
C55         C  0.20468351  0.36199919  0.01974019    -0.03500
C56         C  0.17683562  0.34332835  0.00999155     0.08700
C57         C  0.18947842  0.31200194  0.00028101     0.02500
H58         H  0.20490126  0.38796589  0.02862685     0.10100
H59         H  0.17532938  0.29024106  0.99154833     0.09200
N60         N  0.33326968  0.36708859  0.01682823    -0.34600
N61         N  0.35597729  0.34597855  0.00396396    -0.26800
C62         C  0.38569461  0.36242701  0.00098301    -0.02000
C63         C  0.38140157  0.39518474  0.01298457     0.06600
C64         C  0.34803604  0.39713905  0.02305955     0.04700
H65         H  0.40884653  0.35115172  0.99157592     0.09800
H66         H  0.33516617  0.41907619  0.03338856     0.08600
N67         N  0.24646828  0.66217860  0.99401284    -0.25800
N68         N  0.23532151  0.69328752  0.98867322    -0.33600
C69         C  0.20140077  0.69297014  0.98848996     0.02600
C70         C  0.19061877  0.66001239  0.99410053     0.08600
C71         C  0.21983669  0.64119954  0.99767966    -0.04500
H72         H  0.18587207  0.71522527  0.98491211     0.09300
H73         H  0.22162269  0.61418187  0.00208180     0.10500
Cu74       Cu  0.26656287  0.73488034  0.98219112     0.44200
Cu75       Cu  0.29745787  0.65009023  0.99421830     0.42000
Cu76       Cu  0.35452581  0.71791169  0.96636140     0.43900
N77         N  0.30247765  0.77257152  0.97621909    -0.33200
N78         N  0.33457271  0.76657218  0.96897007    -0.27400
C79         C  0.35119879  0.79633323  0.96710363    -0.03500
C80         C  0.32856457  0.82214393  0.97415704     0.08700
C81         C  0.29786615  0.80616125  0.97963895     0.02500
H82         H  0.37799912  0.79890898  0.96216749     0.10100
H83         H  0.27390454  0.81796785  0.98567592     0.09200
N84         N  0.36939123  0.66816931  0.97516206    -0.34600
N85         N  0.34915573  0.64428057  0.98730879    -0.26800
C86         C  0.36720895  0.61586599  0.99235597    -0.02000
C87         C  0.40025250  0.62209680  0.98255822     0.06600
C88         C  0.40069741  0.65532904  0.97153472     0.04700
H89         H  0.35680168  0.59214061  0.00143782     0.09800
H90         H  0.42229139  0.66932192  0.96202667     0.08600
N91         N  0.23681724  0.00485999  0.65536123    -0.25800
N92         N  0.23107121  0.00834223  0.68824488    -0.33600
C93         C  0.19777780  0.01093595  0.69397152     0.02600
C94         C  0.18135224  0.00897737  0.66339025     0.08600
C95         C  0.20681390  0.00508635  0.63918966    -0.04500
H96         H  0.18629492  0.01359862  0.71882221     0.09300
H97         H  0.20383029  0.00246356  0.61206579     0.10500
Cu98       Cu  0.26755157  0.00722377  0.72508169     0.44200
Cu99       Cu  0.28598150  0.99966283  0.63601333     0.42000
Cu100      Cu  0.34967102  0.98114713  0.70263220     0.43900
N101        N  0.30419663  0.99798350  0.76058050    -0.33200
N102        N  0.33466033  0.98680340  0.75271734    -0.27400
C103        C  0.35212525  0.98187187  0.78150273    -0.03500
C104        C  0.33156170  0.99078128  0.80863388     0.08700
C105        C  0.30130414  0.00072063  0.79435712     0.02500
H106        H  0.37793544  0.97295301  0.78257137     0.10100
H107        H  0.27855754  0.00876880  0.80740827     0.09200
N108        N  0.35998051  0.98545010  0.65122038    -0.34600
N109        N  0.33798790  0.99373233  0.62742854    -0.26800
C110        C  0.35467894  0.99662479  0.59761402    -0.02000
C111        C  0.38847272  0.98934592  0.60303534     0.06600
C112        C  0.39080391  0.98221547  0.63712405     0.04700
H113        H  0.34297174  0.00277615  0.57368502     0.09800
H114        H  0.41344135  0.97574207  0.65090312     0.08600
N115        N  0.32923427  0.96754323  0.95509136    -0.35100
N116        N  0.31943091  0.96838797  0.02880140    -0.55700
N117        N  0.31864615  0.04224336  0.02875056    -0.35100
N118        N  0.32561786  0.04174688  0.95533987    -0.55700
C119        C  0.32043523  0.93483680  0.96100399     0.28500
C120        C  0.32312534  0.97382303  0.92189141     0.28500
C121        C  0.30895448  0.03617136  0.06120678     0.28500
C122        C  0.31128601  0.07508118  0.02191654     0.28500
C123        C  0.32368970  0.93466695  0.02416785     0.37100
C124        C  0.31919997  0.97369263  0.06273152     0.37100
C125        C  0.33137212  0.03659062  0.92191605     0.37100
C126        C  0.32653825  0.07569951  0.96029302     0.37100
C127        C  0.30933415  0.92010708  0.93112303    -0.20400
C128        C  0.31101444  0.94461969  0.90653340    -0.20400
C129        C  0.29639953  0.06577759  0.07549561    -0.20400
C130        C  0.29785251  0.09026303  0.05078086    -0.20400
C131        C  0.32639955  0.91853779  0.05526692    -0.21400
C132        C  0.32345778  0.94322348  0.07966806    -0.21400
C133        C  0.33652241  0.06735147  0.90565752    -0.21400
C134        C  0.33324324  0.09209131  0.92986874    -0.21400
C135        C  0.32178215  0.91777845  0.99259173    -0.16800
C136        C  0.32746774  0.00525953  0.90501854    -0.16800
C137        C  0.31720603  0.09219862  0.99082485    -0.16800
C138        C  0.31180907  0.00497590  0.07871787    -0.16800
H139        H  0.29997002  0.89458472  0.92746949     0.16100
H140        H  0.30319834  0.94138738  0.88049240     0.16100
H141        H  0.28707886  0.06943695  0.10111252     0.16100
H142        H  0.28995438  0.11635929  0.05388342     0.16100
H143        H  0.32932106  0.89165514  0.05993823     0.14400
H144        H  0.32359884  0.93906413  0.10679632     0.14400
H145        H  0.34077623  0.07164432  0.87884714     0.14400
H146        H  0.33439241  0.11908352  0.92515549     0.14400
H147        H  0.34079738  0.98389703  0.97215745     0.27700
H148        H  0.33195589  0.02570924  0.01316167     0.27700
N149        N  0.32071379  0.00782851  0.23250918    -0.25800
N150        N  0.28822072  0.00779432  0.22507664    -0.33600
C151        C  0.28467285  0.00776140  0.19117222     0.02600
C152        C  0.31656820  0.00766042  0.17638786     0.08600
C153        C  0.33877180  0.00780888  0.20340010    -0.04500
H154        H  0.26057276  0.00737493  0.17844188     0.09300
H155        H  0.36607315  0.00735467  0.20197414     0.10500
Cu156      Cu  0.25022871  0.00583388  0.26147100     0.44200
Cu157      Cu  0.33807508  0.00609336  0.28228034     0.42000
Cu158      Cu  0.27310160  0.99207420  0.34877103     0.43900
N159        N  0.21513932  0.00076705  0.30041407    -0.33200
N160        N  0.22283546  0.99511765  0.33250424    -0.27400
C161        C  0.19384311  0.99307214  0.35075192    -0.03500
C162        C  0.16682805  0.99780234  0.32888475     0.08700
C163        C  0.18142652  0.00261622  0.29736525     0.02500
H164        H  0.19260129  0.98909092  0.37787427     0.10100
H165        H  0.16841675  0.00729881  0.27378609     0.09200
N166        N  0.32535828  0.99360041  0.35734727    -0.34600
N167        N  0.34843907  0.00018168  0.33373492    -0.26800
C168        C  0.37919780  0.00070825  0.34818003    -0.02000
C169        C  0.37543083  0.99369625  0.38240829     0.06600
C170        C  0.34105140  0.98914232  0.38724104     0.04700
H171        H  0.40263716  0.00503374  0.33456839     0.09800
H172        H  0.32830495  0.98342672  0.41092335     0.08600
N173        N  0.66394935  0.23369370  0.99132629    -0.25800
N174        N  0.69605859  0.22855399  0.99883125    -0.33600
C175        C  0.70134652  0.19524787  0.00334619     0.02600
C176        C  0.67138311  0.17825543  0.99811299     0.08600
C177        C  0.64802442  0.20338768  0.99049689    -0.04500
H178        H  0.72564824  0.18406061  0.00884822     0.09300
H179        H  0.62160290  0.19995499  0.98456680     0.10500
Cu180      Cu  0.73305253  0.26563173  0.99838773     0.44200
Cu181      Cu  0.64466024  0.28217940  0.98178505     0.42000
Cu182      Cu  0.71074075  0.34190637  0.95637832     0.43900
N183        N  0.76792416  0.30273702  0.98586798    -0.33200
N184        N  0.75979013  0.33031357  0.96882473    -0.27400
C185        C  0.78775852  0.34879272  0.96299069    -0.03500
C186        C  0.81483082  0.33202977  0.97708527     0.08700
C187        C  0.80137728  0.30282123  0.99138710     0.02500
H188        H  0.78829331  0.37274644  0.94962710     0.10100
H189        H  0.81478460  0.28275582  0.00423768     0.09200
N190        N  0.66031922  0.35413795  0.95988215    -0.34600
N191        N  0.63645467  0.33362611  0.97156786    -0.26800
C192        C  0.60797108  0.35182130  0.97623491    -0.02000
C193        C  0.61441966  0.38502444  0.96654550     0.06600
C194        C  0.64763251  0.38545405  0.95605918     0.04700
H195        H  0.58449688  0.34176040  0.98623014     0.09800
H196        H  0.66216763  0.40738345  0.94822973     0.08600
N197        N  0.01502869  0.24443921  0.65272684    -0.25800
N198        N  0.00346347  0.23469119  0.68267861    -0.33600
C199        C  0.99935351  0.20088326  0.68261676     0.02600
C200        C  0.00888267  0.18864309  0.65100197     0.08600
C201        C  0.01866700  0.21697721  0.63272163    -0.04500
H202        H  0.99116234  0.18639113  0.70445262     0.09300
H203        H  0.02822269  0.21753423  0.60695115     0.10500
Cu204      Cu  0.99692328  0.26725395  0.72326701     0.44200
Cu205      Cu  0.02515627  0.29480763  0.64129671     0.42000
Cu206      Cu  0.01336419  0.35622586  0.71061353     0.43900
N207        N  0.99896276  0.30195551  0.76248002    -0.33200
N208        N  0.00548590  0.33462299  0.75858727    -0.27400
C209        C  0.00648487  0.34929032  0.78955424    -0.03500
C210        C  0.00037869  0.32441009  0.81382281     0.08700
C211        C  0.99577248  0.29490932  0.79564292     0.02500
H212        H  0.01175381  0.37583899  0.79400008     0.10100
H213        H  0.99082931  0.26990544  0.80584002     0.09200
N214        N  0.01950293  0.36924570  0.65936424    -0.34600
N215        N  0.02537891  0.34704860  0.63479641    -0.26800
C216        C  0.02691036  0.36347281  0.60489908    -0.02000
C217        C  0.02127462  0.39760492  0.61073118     0.06600
C218        C  0.01651780  0.40031992  0.64546964     0.04700
H219        H  0.02969966  0.35114320  0.58051309     0.09800
H220        H  0.01044972  0.42311868  0.65952176     0.08600
N221        N  0.95951114  0.35119359  0.95601817    -0.35100
N222        N  0.03210600  0.35407295  0.95784767    -0.55700
N223        N  0.03106134  0.35355948  0.03243042    -0.35100
N224        N  0.95859444  0.34645619  0.03048003    -0.55700
C225        C  0.96687493  0.34687066  0.92266992     0.28500
C226        C  0.92805622  0.33872977  0.96142352     0.28500
C227        C  0.06361151  0.34474634  0.02636982     0.28500
C228        C  0.02430269  0.34640435  0.06540509     0.28500
C229        C  0.02807512  0.36072847  0.92444913     0.37100
C230        C  0.06555713  0.35626627  0.96398256     0.37100
C231        C  0.92510933  0.34687730  0.02419360     0.37100
C232        C  0.96196367  0.35245678  0.06408410     0.37100
C233        C  0.93931648  0.33254514  0.90651899    -0.20400
C234        C  0.91511911  0.32686376  0.93101564    -0.20400
C235        C  0.07775115  0.33249145  0.05608629    -0.20400
C236        C  0.05309114  0.33393597  0.08075262    -0.20400
C237        C  0.05909541  0.36759313  0.90942259    -0.21400
C238        C  0.08285611  0.36449613  0.93440461    -0.21400
C239        C  0.90716243  0.35330108  0.05383476    -0.21400
C240        C  0.93052997  0.35715808  0.07904924    -0.21400
C241        C  0.99773330  0.35570193  0.90647839    -0.16800
C242        C  0.91024988  0.33889852  0.99276330    -0.16800
C243        C  0.99271121  0.35014631  0.08193385    -0.16800
C244        C  0.08112531  0.34788462  0.99498968    -0.16800
H245        H  0.93687514  0.32619056  0.87996502     0.16100
H246        H  0.89073827  0.31529167  0.92670217     0.16100
H247        H  0.10313281  0.32310887  0.05974988     0.16100
H248        H  0.05578738  0.32569783  0.10677552     0.16100
H249        H  0.06427332  0.37269019  0.88291718     0.14400
H250        H  0.10988143  0.36727792  0.93104163     0.14400
H251        H  0.88001372  0.35476077  0.05700016     0.14400
H252        H  0.92491940  0.36193452  0.10552667     0.14400
H253        H  0.97394194  0.36453484  0.97344435     0.27700
H254        H  0.01507154  0.36601870  0.01578083     0.27700
N255        N  0.98298631  0.32229071  0.22839850    -0.25800
N256        N  0.97496245  0.29037229  0.22194527    -0.33600
C257        C  0.97099942  0.28625001  0.18841465     0.02600
C258        C  0.97729921  0.31678245  0.17260133     0.08600
C259        C  0.98481696  0.33926692  0.19867477    -0.04500
H260        H  0.96492030  0.26239491  0.17630694     0.09300
H261        H  0.99093586  0.36590329  0.19627621     0.10500
Cu262      Cu  0.97292536  0.25236894  0.25785729     0.44200
Cu263      Cu  0.98991805  0.34017014  0.27807077     0.42000
Cu264      Cu  0.98391023  0.27411690  0.34448526     0.43900
N265        N  0.97857825  0.21637169  0.29536003    -0.33200
N266        N  0.98327547  0.22398830  0.32760985    -0.27400
C267        C  0.98675916  0.19495157  0.34532750    -0.03500
C268        C  0.98395699  0.16791468  0.32291228     0.08700
C269        C  0.97879164  0.18252719  0.29157942     0.02500
H270        H  0.99044576  0.19369374  0.37245139     0.10100
H271        H  0.97531443  0.16947636  0.26770175     0.09200
N272        N  0.98566847  0.32615992  0.35400034    -0.34600
N273        N  0.98969950  0.34987639  0.33050775    -0.26800
C274        C  0.99165233  0.38035896  0.34599834    -0.02000
C275        C  0.98813248  0.37560369  0.38073448     0.06600
C276        C  0.98416573  0.34101358  0.38474905     0.04700
H277        H  0.99467764  0.40428423  0.33290271     0.09800
H278        H  0.98113552  0.32748499  0.40844248     0.08600
N279        N  0.00800780  0.67285553  0.21904972    -0.25800
N280        N  0.99474268  0.70322483  0.21430816    -0.33600
C281        C  0.98779392  0.70718956  0.18125114     0.02600
C282        C  0.99714908  0.67800860  0.16427070     0.08600
C283        C  0.00990923  0.65666136  0.18900372    -0.04500
H284        H  0.97693819  0.72982443  0.17031860     0.09300
H285        H  0.01955629  0.63121751  0.18562040     0.10500
Cu286      Cu  0.98720021  0.73835959  0.25265665     0.44200
Cu287      Cu  0.02109549  0.65476601  0.26663980     0.42000
Cu288      Cu  0.00508598  0.71274683  0.33793660     0.43900
N289        N  0.98560969  0.77134458  0.29351562    -0.33200
N290        N  0.99326769  0.76257523  0.32488123    -0.27400
C291        C  0.99181358  0.79039241  0.34479870    -0.03500
C292        C  0.98252951  0.81781492  0.32484175     0.08700
C293        C  0.97873939  0.80468323  0.29262274     0.02500
H294        H  0.99721182  0.79056675  0.37165141     0.10100
H295        H  0.97226838  0.81856664  0.26991837     0.09200
N296        N  0.01560965  0.66116454  0.34299270    -0.34600
N297        N  0.02343028  0.64083157  0.31737218    -0.26800
C298        C  0.02952981  0.60953005  0.32945956    -0.02000
C299        C  0.02444583  0.60994281  0.36413914     0.06600
C300        C  0.01570704  0.64303981  0.37192754     0.04700
H301        H  0.03595900  0.58777935  0.31396335     0.09800
H302        H  0.01016397  0.65328094  0.39681493     0.08600
N303        N  0.67039366  0.99329650  0.21697255    -0.25800
N304        N  0.70225276  0.00240848  0.21245851    -0.33600
C305        C  0.70802982  0.00820402  0.17936857     0.02600
C306        C  0.67854719  0.00236298  0.16187204     0.08600
C307        C  0.65504939  0.99284338  0.18648599    -0.04500
H308        H  0.73208179  0.01607355  0.16878393     0.09300
H309        H  0.62870043  0.98674737  0.18268324     0.10500
Cu310      Cu  0.73704643  0.00638857  0.25102393     0.44200
Cu311      Cu  0.65009735  0.98445937  0.26537980     0.42000
Cu312      Cu  0.71061346  0.99356516  0.33649888     0.43900
N313        N  0.77031784  0.00519686  0.29108325    -0.33200
N314        N  0.76113450  0.99943093  0.32283231    -0.27400
C315        C  0.78904013  0.99840770  0.34225862    -0.03500
C316        C  0.81694883  0.00402083  0.32146350     0.08700
C317        C  0.80403832  0.00833260  0.28935785     0.02500
H318        H  0.78893436  0.99402207  0.36933905     0.10100
H319        H  0.81821558  0.01277755  0.26621705     0.09200
N320        N  0.65847108  0.98908601  0.34205624    -0.34600
N321        N  0.63690718  0.98420502  0.31695173    -0.26800
C322        C  0.60547663  0.98171985  0.33012657    -0.02000
C323        C  0.60730275  0.98594570  0.36491342     0.06600
C324        C  0.64124528  0.99054309  0.37157090     0.04700
H325        H  0.58282129  0.97815061  0.31535052     0.09800
H326        H  0.65268677  0.99435012  0.39612208     0.08600
N327        N  0.02672545  0.95483618  0.37382635    -0.35100
N328        N  0.02829487  0.02899317  0.36872068    -0.55700
N329        N  0.95461497  0.02958589  0.36309052    -0.35100
N330        N  0.95264984  0.95575074  0.36898968    -0.59000
C331        C  0.06048006  0.95978709  0.36964101     0.28500
C332        C  0.02066714  0.92123244  0.36928986     0.28500
C333        C  0.96044853  0.06343146  0.36460083     0.28500
C334        C  0.92070812  0.02492982  0.36484020     0.28500
C335        C  0.06197766  0.02352908  0.37021723     0.37100
C336        C  0.02386899  0.06296279  0.36688901     0.37100
C337        C  0.95705817  0.92176415  0.36989029     0.37100
C338        C  0.91898373  0.96128239  0.36719457     0.37100
C339        C  0.07603882  0.92881406  0.36379233    -0.20400
C340        C  0.05108861  0.90464529  0.36353118    -0.20400
C341        C  0.92984504  0.08042853  0.36699539    -0.20400
C342        C  0.90487719  0.05623515  0.36718211    -0.20400
C343        C  0.07898930  0.05429628  0.36999385    -0.21400
C344        C  0.05492544  0.07919393  0.36772712    -0.21400
C345        C  0.92590480  0.90563575  0.36947535    -0.21400
C346        C  0.90186449  0.93058789  0.36758630    -0.21400
C347        C  0.07793437  0.99132354  0.36955242    -0.16800
C348        C  0.98865424  0.90481443  0.36876241    -0.16800
C349        C  0.90328994  0.99341461  0.36417165    -0.16800
C350        C  0.99243298  0.07978502  0.36381365    -0.16800
H351        H  0.10260842  0.92410079  0.35916962     0.16100
H352        H  0.05497846  0.87790817  0.35866508     0.16100
H353        H  0.92583132  0.10751941  0.36885489     0.16100
H354        H  0.87805577  0.06122667  0.36922072     0.16100
H355        H  0.10599916  0.05844843  0.37076570     0.14400
H356        H  0.05983349  0.10617640  0.36655135     0.14400
H357        H  0.92093683  0.87864498  0.36980586     0.14400
H358        H  0.87487456  0.92646664  0.36621889     0.14400
H359        H  0.00916628  0.97295980  0.38094427     0.27700
H360        H  0.97244988  0.01107703  0.35825411     0.27700
N361        N  0.76899037  0.66140783  0.99520451    -0.25800
N362        N  0.77954853  0.69276196  0.98969376    -0.33600
C363        C  0.81350275  0.69311684  0.98871413     0.02600
C364        C  0.82505984  0.66033661  0.99379275     0.08600
C365        C  0.79611078  0.64095134  0.99787864    -0.04500
H366        H  0.82845101  0.71568642  0.98440403     0.09300
H367        H  0.79486130  0.61386414  0.00207979     0.10500
Cu368      Cu  0.74767989  0.73400173  0.98333600     0.44200
Cu369      Cu  0.71796755  0.64817040  0.99734109     0.42000
Cu370      Cu  0.65886475  0.71731786  0.97854252     0.43900
N371        N  0.71176279  0.77205955  0.97922781    -0.33200
N372        N  0.67895741  0.76617073  0.97732801    -0.27400
C373        C  0.66247910  0.79608439  0.97658036    -0.03500
C374        C  0.68619835  0.82199150  0.97815688     0.08700
C375        C  0.71707355  0.80573996  0.97976980     0.02500
H376        H  0.63529129  0.79864438  0.97593844     0.10100
H377        H  0.74163415  0.81756735  0.98199697     0.09200
N378        N  0.64481807  0.66674168  0.98488310    -0.34600
N379        N  0.66575189  0.64205956  0.99346292    -0.26800
C380        C  0.64804093  0.61300944  0.99673880    -0.02000
C381        C  0.61451992  0.61969709  0.98944256     0.06600
C382        C  0.61349032  0.65386584  0.98177751     0.04700
H383        H  0.65897772  0.58859731  0.00264855     0.09800
H384        H  0.59150661  0.66838219  0.97455353     0.08600
N385        N  0.01606392  0.67347718  0.75291252    -0.25800
N386        N  0.02027321  0.70628866  0.75828744    -0.33600
C387        C  0.02171060  0.71213133  0.79180280     0.02600
C388        C  0.01805631  0.68162303  0.80853872     0.08600
C389        C  0.01454175  0.65749955  0.78312220    -0.04500
H390        H  0.02491809  0.73689816  0.80318363     0.09300
H391        H  0.01143195  0.63042285  0.78623332     0.10500
Cu392      Cu  0.02296822  0.74187755  0.72000921     0.44200
Cu393      Cu  0.01350265  0.65300384  0.70417019     0.42000
Cu394      Cu  0.02360917  0.71269308  0.63308201     0.43900
N395        N  0.02182304  0.77407492  0.67878043    -0.33200
N396        N  0.02194088  0.76391372  0.64682456    -0.27400
C397        C  0.01962956  0.79142196  0.62665681    -0.03500
C398        C  0.01792078  0.82011003  0.64696276     0.08700
C399        C  0.01946042  0.80802034  0.67988960     0.02500
H400        H  0.01876916  0.79059830  0.59924964     0.10100
H401        H  0.01855084  0.82254224  0.70314801     0.09200
N402        N  0.02070039  0.65997318  0.62759950    -0.34600
N403        N  0.01523053  0.63881792  0.65314845    -0.26800
C404        C  0.01160782  0.60718889  0.64076931    -0.02000
C405        C  0.01572062  0.60822384  0.60594495     0.06600
C406        C  0.02147356  0.64208876  0.59841600     0.04700
H407        H  0.00639231  0.58499407  0.65605700     0.09800
H408        H  0.02453801  0.65310456  0.57345539     0.08600
N409        N  0.76530418  0.98655105  0.65030843    -0.25800
N410        N  0.77290164  0.99750018  0.68097859    -0.33600
C411        C  0.80663597  0.99954364  0.68386865     0.02600
C412        C  0.82112679  0.98932204  0.65344171     0.08600
C413        C  0.79415367  0.98118840  0.63277266    -0.04500
H414        H  0.81949335  0.00726751  0.70672200     0.09300
H415        H  0.79541233  0.97217999  0.60686843     0.10500
Cu416      Cu  0.73694569  0.00707986  0.71799346     0.44200
Cu417      Cu  0.71556606  0.98047037  0.63482480     0.42000
Cu418      Cu  0.64848550  0.99825639  0.69844600     0.43900
N419        N  0.69898735  0.00870475  0.75419544    -0.33200
N420        N  0.66647236  0.00447467  0.74797109    -0.27400
C421        C  0.64947058  0.00444014  0.77785174    -0.03500
C422        C  0.67266392  0.00900866  0.80380953     0.08700
C423        C  0.70357034  0.01174140  0.78773229     0.02500
H424        H  0.62243964  0.00117222  0.78043510     0.10100
H425        H  0.72790977  0.01484481  0.79966766     0.09200
N426        N  0.64021060  0.99086827  0.64645035    -0.34600
N427        N  0.66418525  0.98266128  0.62429364    -0.26800
C428        C  0.65028616  0.97863971  0.59350274    -0.02000
C429        C  0.61613932  0.98533456  0.59603986     0.06600
C430        C  0.61054991  0.99302378  0.62994452     0.04700
H431        H  0.66426391  0.97234700  0.57066896     0.09800
H432        H  0.58663479  0.99930739  0.64181350     0.08600
N433        N  0.64292845  0.96333393  0.94445823    -0.35100
N434        N  0.64636668  0.96074693  0.01820668    -0.55700
N435        N  0.64627175  0.03491590  0.02050551    -0.35100
N436        N  0.63879491  0.03713024  0.94665550    -0.55700
C437        C  0.63930066  0.92954061  0.94950819     0.28500
C438        C  0.63494850  0.96982887  0.91173846     0.28500
C439        C  0.64252794  0.02794081  0.05399552     0.28500
C440        C  0.63963037  0.06833703  0.01617099     0.28500
C441        C  0.65144731  0.92742793  0.01163010     0.37100
C442        C  0.65085948  0.96497301  0.05192804     0.37100
C443        C  0.64069607  0.03302034  0.91258036     0.37100
C444        C  0.64160239  0.07081883  0.95267158     0.37100
C445        C  0.62908077  0.91434881  0.91954538    -0.20400
C446        C  0.62636378  0.93970241  0.89576299    -0.20400
C447        C  0.63392303  0.05744297  0.07117408    -0.20400
C448        C  0.63213438  0.08287010  0.04737569    -0.20400
C449        C  0.65862961  0.91036087  0.04146503    -0.21400
C450        C  0.65825698  0.93409002  0.06692435    -0.21400
C451        C  0.64379356  0.06437102  0.89692722    -0.21400
C452        C  0.64451240  0.08821491  0.92224520    -0.21400
C453        C  0.64734528  0.91168504  0.97957774    -0.16800
C454        C  0.63797315  0.00161544  0.89517627    -0.16800
C455        C  0.64085973  0.08643162  0.98505075    -0.16800
C456        C  0.64737730  0.99595869  0.06977630    -0.16800
H457        H  0.62456493  0.88765537  0.91504046     0.16100
H458        H  0.61939237  0.93615288  0.86951442     0.16100
H459        H  0.62922925  0.06037870  0.09809305     0.16100
H460        H  0.62572685  0.10906841  0.05249213     0.16100
H461        H  0.66307388  0.88350005  0.04478061     0.14400
H462        H  0.66277734  0.92908650  0.09349810     0.14400
H463        H  0.64503420  0.06972629  0.87004158     0.14400
H464        H  0.64682290  0.11531856  0.91856524     0.14400
H465        H  0.65442027  0.98014069  0.96097510     0.27700
H466        H  0.65591662  0.01865559  0.00221294     0.27700
N467        N  0.04135861  0.96919921  0.63734197    -0.35100
N468        N  0.03942852  0.04332353  0.63651831    -0.55700
N469        N  0.96687760  0.03936786  0.65014572    -0.35100
N470        N  0.96813060  0.96556677  0.64628531    -0.55700
C471        C  0.07364208  0.97585112  0.62788870     0.28500
C472        C  0.03680133  0.93520834  0.63572986     0.28500
C473        C  0.97084752  0.07316671  0.64589878     0.28500
C474        C  0.93336775  0.03275495  0.64847931     0.28500
C475        C  0.07331516  0.03881106  0.63668010     0.37100
C476        C  0.03380731  0.07610077  0.64505703     0.37100
C477        C  0.97578984  0.93278583  0.65274270     0.37100
C478        C  0.93541710  0.96987588  0.65551340     0.37100
C479        C  0.08971987  0.94562831  0.61979410    -0.20400
C480        C  0.06661248  0.92003023  0.62496939    -0.20400
C481        C  0.93955439  0.08823106  0.64145751    -0.20400
C482        C  0.91592402  0.06273633  0.64294165    -0.20400
C483        C  0.08928120  0.06925547  0.64396783    -0.21400
C484        C  0.06430342  0.09271607  0.64968634    -0.21400
C485        C  0.94743053  0.91594675  0.66496067    -0.21400
C486        C  0.92186855  0.93940358  0.66663609    -0.21400
C487        C  0.09019124  0.00764324  0.63055685    -0.16800
C488        C  0.00770119  0.91745410  0.64714462    -0.16800
C489        C  0.91774649  0.00105107  0.65466673    -0.16800
C490        C  0.00153203  0.09123740  0.64861015    -0.16800
H491        H  0.11585174  0.94216323  0.61231325     0.16100
H492        H  0.07167115  0.89323988  0.62201508     0.16100
H493        H  0.93427141  0.11492696  0.63793392     0.16100
H494        H  0.88886918  0.06602679  0.64088427     0.16100
H495        H  0.11612940  0.07404866  0.64570182     0.14400
H496        H  0.06833393  0.11890203  0.65678604     0.14400
H497        H  0.94535966  0.88951665  0.67208383     0.14400
H498        H  0.89644690  0.93465449  0.67573219     0.14400
H499        H  0.02505511  0.98608453  0.64897882     0.27700
H500        H  0.98531659  0.02286621  0.65858707     0.27700
N501        N  0.97166871  0.64756857  0.94941436    -0.35100
N502        N  0.97184757  0.64718469  0.02330638    -0.55700
N503        N  0.04526596  0.64394681  0.02332783    -0.35100
N504        N  0.04463301  0.64736002  0.94933443    -0.55700
C505        C  0.94006341  0.65911037  0.95603778     0.28500
C506        C  0.97833756  0.65391086  0.91627703     0.28500
C507        C  0.03898129  0.64925902  0.05669011     0.28500
C508        C  0.07745596  0.65405880  0.01715856     0.28500
C509        C  0.93810236  0.64689619  0.01811431     0.37100
C510        C  0.97651265  0.64105216  0.05668206     0.37100
C511        C  0.03991554  0.64195980  0.91585544     0.37100
C512        C  0.07826468  0.64575124  0.95447075     0.37100
C513        C  0.92636021  0.67223813  0.92649768    -0.20400
C514        C  0.95039888  0.66873003  0.90141083    -0.20400
C515        C  0.06783946  0.66169344  0.07212598    -0.20400
C516        C  0.09197772  0.66504165  0.04715333    -0.20400
C517        C  0.92127659  0.64044903  0.04840611    -0.21400
C518        C  0.94559508  0.63626305  0.07268852    -0.21400
C519        C  0.07066757  0.63636924  0.89975429    -0.21400
C520        C  0.09501962  0.63914608  0.92419976    -0.21400
C521        C  0.92247869  0.65647772  0.98739756    -0.16800
C522        C  0.00893409  0.64667642  0.89903227    -0.16800
C523        C  0.09429807  0.65330590  0.98535675    -0.16800
C524        C  0.00779345  0.64399795  0.07361064    -0.16800
H525        H  0.90145889  0.68297862  0.92315335     0.16100
H526        H  0.94774858  0.67670078  0.87530253     0.16100
H527        H  0.07093674  0.66862885  0.09849231     0.16100
H528        H  0.11727468  0.67474951  0.05076070     0.16100
H529        H  0.89432612  0.63970674  0.05296605     0.14400
H530        H  0.94091992  0.63173149  0.09938220     0.14400
H531        H  0.07521464  0.63225786  0.87296243     0.14400
H532        H  0.12201685  0.63714174  0.92010293     0.14400
H533        H  0.98672435  0.63343456  0.96560093     0.27700
H534        H  0.02918307  0.63199211  0.00639118     0.27700
C535        C  0.85746256  0.98692211  0.64466564    -0.14900
C536        C  0.88125750  0.00162711  0.66384632    -0.30100
H537        H  0.86478853  0.97368176  0.62158619     0.14100
H538        H  0.87393894  0.01690979  0.68559778     0.14700
C539        C  0.66784647  0.01030254  0.84102689    -0.14900
C540        C  0.63917299  0.00168909  0.85729203    -0.30100
H541        H  0.68960063  0.01768740  0.85602271     0.14100
H542        H  0.61763689  0.99230311  0.84319616     0.14700
C543        C  0.01829578  0.67733092  0.84573136    -0.14900
C544        C  0.00929377  0.64848455  0.86139718    -0.30100
H545        H  0.02525232  0.69917426  0.86102101     0.14100
H546        H  0.00094672  0.62658147  0.84702512     0.14700
C547        C  0.01458328  0.85575244  0.63554339    -0.14900
C548        C  0.01160669  0.88151666  0.65770019    -0.30100
H549        H  0.01447407  0.86098184  0.60849637     0.14100
H550        H  0.01043221  0.87655434  0.68473252     0.14700
C551        C  0.86041401  0.64793342  0.99415169    -0.14900
C552        C  0.88687165  0.66861693  0.98847829    -0.30100
H553        H  0.86482153  0.62115050  0.99881031     0.14100
H554        H  0.88267733  0.69511598  0.98246879     0.14700
C555        C  0.68103553  0.85913313  0.98009030    -0.14900
C556        C  0.65067504  0.87408762  0.97735373    -0.30100
H557        H  0.70318780  0.87492066  0.98405542     0.14100
H558        H  0.62829497  0.85911627  0.97209767     0.14700
C559        C  0.85320549  0.00512707  0.32985238    -0.14900
C560        C  0.86598736  0.99403346  0.35926896    -0.30100
H561        H  0.87044973  0.01416802  0.31025700     0.14100
H562        H  0.84961723  0.98282449  0.37843288     0.14700
C563        C  0.67457588  0.00645288  0.12480089    -0.14900
C564        C  0.64806428  0.99437083  0.10754622    -0.30100
H565        H  0.69512050  0.01847344  0.11084986     0.14100
H566        H  0.62834722  0.98024367  0.12061605     0.14700
C567        C  0.97857397  0.85399123  0.33395244    -0.14900
C568        C  0.98869209  0.86730377  0.36357768    -0.30100
H569        H  0.96864577  0.87084231  0.31462662     0.14100
H570        H  0.00081472  0.85139745  0.38236656     0.14700
C571        C  0.99405559  0.67239383  0.12742534    -0.14900
C572        C  0.00790084  0.64578557  0.11127425    -0.30100
H573        H  0.98121867  0.69173660  0.11271165     0.14100
H574        H  0.02286933  0.62741432  0.12508835     0.14700
C575        C  0.98429369  0.13105646  0.32960290    -0.14900
C576        C  0.99297329  0.11730999  0.35943826    -0.30100
H577        H  0.97722383  0.11433911  0.30888352     0.14100
H578        H  0.00178936  0.13312893  0.38011787     0.14700
C579        C  0.99185695  0.34811497  0.11973286    -0.14900
C580        C  0.97626767  0.32224128  0.13553035    -0.30100
H581        H  0.00695030  0.36594157  0.13418179     0.14100
H582        H  0.96377501  0.30300134  0.12033117     0.14700
C583        C  0.99932971  0.32665288  0.85125300    -0.14900
C584        C  0.99942852  0.35590589  0.86868438    -0.30100
H585        H  0.99739852  0.30295776  0.86522615     0.14100
H586        H  0.00193816  0.38001047  0.85562421     0.14700
C587        C  0.01094727  0.15296546  0.63962410    -0.14900
C588        C  0.99891125  0.12744542  0.65870780    -0.30100
H589        H  0.02292469  0.14746777  0.61535897     0.14100
H590        H  0.98509680  0.13287631  0.68195615     0.14700
C591        C  0.85035810  0.34316796  0.97578863    -0.14900
C592        C  0.87447068  0.32763824  0.99369355    -0.30100
H593        H  0.85686152  0.36481962  0.95999405     0.14100
H594        H  0.86784090  0.30744832  0.01123246     0.14700
C595        C  0.66738375  0.14098310  0.99954580    -0.14900
C596        C  0.64107751  0.12426464  0.98620504    -0.30100
H597        H  0.68800895  0.12645657  0.01034428     0.14100
H598        H  0.62138435  0.13807212  0.97306582     0.14700
C599        C  0.13002388  0.99919226  0.33587556    -0.14900
C600        C  0.11551521  0.99036054  0.36551026    -0.30100
H601        H  0.11387054  0.00733233  0.31523768     0.14100
H602        H  0.13066893  0.98026765  0.38599618     0.14700
C603        C  0.30245521  0.00457624  0.11531846    -0.14900
C604        C  0.32573453  0.00679782  0.13986205    -0.30100
H605        H  0.27575616  0.00359396  0.12163031     0.14100
H606        H  0.35231649  0.00798871  0.13289874     0.14700
C607        C  0.33985546  0.98942777  0.84505299    -0.14900
C608        C  0.32144736  0.00678983  0.86791456    -0.30100
H609        H  0.36118500  0.97423936  0.85322017     0.14100
H610        H  0.30166784  0.02378655  0.85942172     0.14700
C611        C  0.12781612  0.00747839  0.63039426    -0.14900
C612        C  0.14429948  0.01051335  0.65983350    -0.30100
H613        H  0.14139213  0.00260449  0.60687570     0.14100
H614        H  0.12961129  0.01404236  0.68299036     0.14700
C615        C  0.33592631  0.85882948  0.97545898    -0.14900
C616        C  0.31624823  0.88042225  0.99306966    -0.30100
H617        H  0.35791579  0.86833315  0.96181397     0.14100
H618        H  0.29575614  0.87067663  0.00874433     0.14700
C619        C  0.15556302  0.64736093  0.99622583    -0.14900
C620        C  0.12981854  0.66513112  0.98331805    -0.30100
H621        H  0.15081159  0.62288878  0.00797880     0.14100
H622        H  0.13465557  0.68840979  0.96939963     0.14700
C623        C  0.33211329  0.15321837  0.98552534    -0.14900
C624        C  0.30863159  0.12889141  0.98951778    -0.30100
H625        H  0.35848490  0.14614007  0.98249546     0.14100
H626        H  0.28243197  0.13566449  0.99406737     0.14700
C627        C  0.14129079  0.35455091  0.01080667    -0.14900
C628        C  0.11732902  0.33815807  0.99335320    -0.30100
H629        H  0.13462398  0.37664545  0.02591252     0.14100
H630        H  0.12424181  0.31762778  0.97629242     0.14700
C631        C  0.03187407  0.57517860  0.55505026    -0.14900
C632        C  0.01146195  0.57954165  0.58208682    -0.30100
H633        H  0.05311336  0.59226874  0.55122770     0.14100
H634        H  0.99211100  0.56079308  0.58776399     0.14700
C635        C  0.03347433  0.42481390  0.55545752    -0.14900
C636        C  0.01660596  0.42466823  0.58519395    -0.30100
H637        H  0.05270638  0.40576535  0.55050559     0.14100
H638        H  0.99970372  0.44549781  0.59142766     0.14700
C639        C  0.02824666  0.58107734  0.38756834    -0.14900
C640        C  0.00667924  0.57589251  0.41352222    -0.30100
H641        H  0.04836527  0.56298703  0.38254563     0.14100
H642        H  0.98482542  0.59229158  0.41665701     0.14700
C643        C  0.00896314  0.42849789  0.40692236    -0.14900
C644        C  0.98850435  0.40132709  0.40824118    -0.30100
H645        H  0.02604776  0.43140867  0.38542141     0.14100
H646        H  0.97393109  0.39634652  0.43115841     0.14700
C647        C  0.56618922  0.00662056  0.56547454    -0.14900
C648        C  0.59152605  0.98413735  0.56800475    -0.30100
H649        H  0.56398943  0.02694719  0.58398532     0.14100
H650        H  0.59580145  0.96593433  0.54772042     0.14700
C651        C  0.41928202  0.00968519  0.55241712    -0.14900
C652        C  0.41649117  0.98774963  0.57824988    -0.30100
H653        H  0.40099798  0.03004043  0.54979221     0.14100
H654        H  0.43658672  0.96957516  0.58277204     0.14700
C655        C  0.57890937  0.98551052  0.38948228    -0.14900
C656        C  0.57890354  0.00517495  0.41733658    -0.30100
H657        H  0.55687697  0.97016842  0.38368521     0.14100
H658        H  0.59938841  0.02306724  0.42132310     0.14700
C659        C  0.40199161  0.99066205  0.40852363    -0.14900
C660        C  0.43079807  0.00873252  0.40715156    -0.30100
H661        H  0.39669832  0.97500911  0.43060850     0.14100
H662        H  0.43465508  0.02700596  0.38688162     0.14700
C663        C  0.58613333  0.59545520  0.98712239    -0.14900
C664        C  0.58241696  0.56940384  0.00879464    -0.30100
H665        H  0.56702291  0.60003719  0.96801875     0.14100
H666        H  0.59976702  0.56663499  0.02984065     0.14700
C667        C  0.59194172  0.41467898  0.96835504    -0.14900
C668        C  0.57168930  0.42016193  0.99518772    -0.30100
H669        H  0.59381449  0.43351052  0.94832111     0.14100
H670        H  0.57205262  0.40268907  0.01649090     0.14700
C671        C  0.43238456  0.57424280  0.00578898    -0.14900
C672        C  0.42862532  0.59795421  0.98171920    -0.30100
H673        H  0.41543347  0.57387938  0.02759496     0.14100
H674        H  0.44718428  0.60025166  0.96141179     0.14700
C675        C  0.43054678  0.42738055  0.99201548    -0.14900
C676        C  0.40684375  0.42229518  0.01596018    -0.30100
H677        H  0.43047253  0.41211350  0.96905611     0.14100
H678        H  0.40497456  0.43948449  0.03744711     0.14700
loop_ 
_geom_bond_atom_site_label_1 
_geom_bond_atom_site_label_2 
_geom_bond_distance 
_geom_bond_site_symmetry_2 
_ccdc_geom_bond_type 
O1           Cu9   2.009       .  S
O1           C11   1.278   1_556  A
O2           Cu9   2.008       .  S
O2           C12   1.278       .  A
O3           Cu9   2.016       .  S
O3           C13   1.278       .  A
O4           Cu9   2.012       .  S
O4           C14   1.278   1_556  A
O5          Cu10   2.025       .  S
O5           C14   1.279       .  A
O6          Cu10   2.007       .  S
O6           C13   1.278   1_554  A
O7          Cu10   2.009       .  S
O7           C12   1.277   1_554  A
O8          Cu10   2.012       .  S
O8           C11   1.277       .  A
Cu9         Cu10   2.374   1_556  S
C11         C671   1.473       .  S
C12         C668   1.473       .  S
C13         C675   1.474       .  S
C14         C664   1.478       .  S
O15         Cu23   2.016       .  S
O15          C25   1.278       .  A
O16         Cu23   2.018       .  S
O16          C26   1.278       .  A
O17         Cu23   2.014       .  S
O17          C27   1.277       .  A
O18         Cu23   2.012       .  S
O18          C28   1.277       .  A
O19         Cu24   2.015       .  S
O19          C28   1.279   1_565  A
O20         Cu24   2.020       .  S
O20          C27   1.279   1_565  A
O21         Cu24   2.025       .  S
O21          C26   1.280   1_565  A
O22         Cu24   2.023       .  S
O22          C25   1.279   1_565  A
Cu23        Cu24   2.366   1_545  S
C25         C660   1.478       .  S
C26         C647   1.479       .  S
C27         C656   1.475       .  S
C28         C651   1.475       .  S
O29         Cu37   2.042       .  S
O29          C39   1.282   1_655  A
O30         Cu37   2.022       .  S
O30          C40   1.279   1_655  A
O31         Cu37   2.024       .  S
O31          C41   1.279   1_655  A
O32         Cu37   2.015       .  S
O32          C42   1.278   1_655  A
O33         Cu38   2.024       .  S
O33          C42   1.279       .  A
O34         Cu38   2.004       .  S
O34          C41   1.277       .  A
O35         Cu38   2.021       .  S
O35          C40   1.278       .  A
O36         Cu38   2.008       .  S
O36          C39   1.276       .  A
Cu37        Cu38   2.374   1_655  S
C39         C643   1.481       .  S
C40         C631   1.481       .  S
C41         C640   1.476       .  S
C42         C635   1.478       .  S
N43          N44   1.322       .  A
N43          C47   1.348       .  A
N43         Cu51   2.085       .  S
N44          C45   1.343       .  A
N44         Cu50   2.070       .  S
C45          C46   1.386       .  A
C45          H48   1.081       .  S
C46         C623   1.481       .  S
C46          C47   1.385       .  A
C47          H49   1.082       .  S
Cu50         N53   2.069   1_556  S
Cu51         N61   2.086   1_556  S
Cu52         N54   2.069       .  S
Cu52         N60   2.070       .  S
N53          N54   1.321       .  A
N53          C57   1.343       .  A
N54          C55   1.346       .  A
C55          C56   1.382       .  A
C55          H58   1.082       .  S
C56         C627   1.475       .  S
C56          C57   1.386       .  A
C57          H59   1.082   1_554  S
N60          N61   1.324       .  A
N60          C64   1.344       .  A
N61          C62   1.347       .  A
C62          C63   1.385       .  A
C62          H65   1.082   1_554  S
C63         C676   1.473       .  S
C63          C64   1.379       .  A
C64          H66   1.082       .  S
N67          N68   1.321       .  A
N67          C71   1.346       .  A
N67         Cu75   2.074       .  S
N68          C69   1.343       .  A
N68         Cu74   2.068       .  S
C69          C70   1.385       .  A
C69          H72   1.082       .  S
C70         C619   1.476       .  S
C70          C71   1.383       .  A
C71          H73   1.082   1_556  S
Cu74         N77   2.068       .  S
Cu75         N85   2.075       .  S
Cu76         N78   2.078       .  S
Cu76         N84   2.078       .  S
N77          N78   1.322       .  A
N77          C81   1.344       .  A
N78          C79   1.347       .  A
C79          C80   1.383       .  A
C79          H82   1.082       .  S
C80         C615   1.476       .  S
C80          C81   1.384       .  A
C81          H83   1.082       .  S
N84          N85   1.324       .  A
N84          C88   1.346       .  A
N85          C86   1.345       .  A
C86          C87   1.383       .  A
C86          H89   1.082   1_556  S
C87         C672   1.473       .  S
C87          C88   1.381       .  A
C88          H90   1.082       .  S
N91          N92   1.322       .  A
N91          C95   1.352       .  A
N91         Cu99   2.095   1_545  S
N92          C93   1.339       .  A
N92         Cu98   2.056       .  S
C93          C94   1.376       .  A
C93          H96   1.082       .  S
C94         C612   1.476       .  S
C94          C95   1.391       .  A
C95          H97   1.082       .  S
Cu98        N101   2.056   1_545  S
Cu99        N109   2.097       .  S
Cu100       N102   2.070       .  S
Cu100       N108   2.072       .  S
N101        N102   1.319       .  A
N101        C105   1.340   1_565  A
N102        C103   1.347       .  A
C103        C104   1.385       .  A
C103        H106   1.082       .  S
C104        C607   1.476       .  S
C104        C105   1.384   1_565  A
C105        H107   1.082       .  S
N108        N109   1.326       .  A
N108        C112   1.343       .  A
N109        C110   1.349       .  A
C110        C111   1.386       .  A
C110        H113   1.082   1_565  S
C111        C652   1.474       .  S
C111        C112   1.377       .  A
C112        H114   1.082       .  S
N115        C120   1.356       .  A
N115        C119   1.355       .  A
N115        H147   1.040       .  S
N116        C123   1.352       .  A
N116        C124   1.354       .  A
N117        C122   1.355       .  A
N117        C121   1.355       .  A
N117        H148   1.037       .  S
N118        C125   1.351       .  A
N118        C126   1.353       .  A
C119        C127   1.387       .  A
C119        C135   1.417       .  A
C120        C136   1.417   1_565  A
C120        C128   1.387       .  A
C121        C129   1.387       .  A
C121        C138   1.416       .  A
C122        C137   1.418   1_554  A
C122        C130   1.388       .  A
C123        C135   1.414   1_554  A
C123        C131   1.387       .  A
C124        C138   1.415   1_565  A
C124        C132   1.386       .  A
C125        C133   1.386       .  A
C125        C136   1.412       .  A
C126        C134   1.387       .  A
C126        C137   1.415       .  A
C127        C128   1.371       .  A
C127        H139   1.082       .  S
C128        H140   1.082       .  S
C129        C130   1.373       .  A
C129        H141   1.082       .  S
C130        H142   1.082       .  S
C131        C132   1.372       .  A
C131        H143   1.082       .  S
C132        H144   1.082       .  S
C133        C134   1.370       .  A
C133        H145   1.083       .  S
C134        H146   1.081       .  S
C135        C616   1.489       .  S
C136        C608   1.485       .  S
C137        C624   1.487       .  S
C138        C603   1.487       .  S
N149        N150   1.321       .  A
N149        C153   1.348       .  A
N149       Cu157   2.085       .  S
N150        C151   1.345       .  A
N150       Cu156   2.073       .  S
C151        C152   1.387       .  A
C151        H154   1.081       .  S
C152        C604   1.483       .  S
C152        C153   1.386       .  A
C153        H155   1.082       .  S
Cu156       N159   2.073       .  S
Cu157       N167   2.086       .  S
Cu158       N160   2.098       .  S
Cu158       N166   2.099       .  S
N159        N160   1.323   1_545  A
N159        C163   1.343       .  A
N160        C161   1.352       .  A
C161        C162   1.391       .  A
C161        H164   1.082       .  S
C162        C599   1.482       .  S
C162        C163   1.380   1_565  A
C163        H165   1.082       .  S
N166        N167   1.325   1_565  A
N166        C170   1.348       .  A
N167        C168   1.348       .  A
C168        C169   1.385   1_545  A
C168        H171   1.082       .  S
C169        C659   1.482       .  S
C169        C170   1.384       .  A
C170        H172   1.082       .  S
N173        N174   1.323       .  A
N173        C177   1.351       .  A
N173       Cu181   2.094       .  S
N174        C175   1.342   1_556  A
N174       Cu180   2.068       .  S
C175        C176   1.378   1_554  A
C175        H178   1.082       .  S
C176        C595   1.479       .  S
C176        C177   1.390       .  A
C177        H179   1.082       .  S
Cu180       N183   2.068       .  S
Cu181       N191   2.094       .  S
Cu182       N184   2.058       .  S
Cu182       N190   2.057       .  S
N183        N184   1.320       .  A
N183        C187   1.343       .  A
N184        C185   1.343       .  A
C185        C186   1.380       .  A
C185        H188   1.082       .  S
C186        C591   1.473       .  S
C186        C187   1.387       .  A
C187        H189   1.081   1_556  S
N190        N191   1.324       .  A
N190        C194   1.342       .  A
N191        C192   1.348       .  A
C192        C193   1.387       .  A
C192        H195   1.082       .  S
C193        C667   1.471       .  S
C193        C194   1.375       .  A
C194        H196   1.082       .  S
N197        N198   1.321       .  A
N197        C201   1.346       .  A
N197       Cu205   2.075       .  S
N198        C199   1.343   1_455  A
N198       Cu204   2.066   1_455  S
C199        C200   1.386   1_655  A
C199        H202   1.081       .  S
C200        C587   1.478       .  S
C200        C201   1.383       .  A
C201        H203   1.082       .  S
Cu204       N207   2.066       .  S
Cu205       N215   2.076       .  S
Cu206       N208   2.096       .  S
Cu206       N214   2.098       .  S
N207        N208   1.322   1_655  A
N207        C211   1.342       .  A
N208        C209   1.351       .  A
C209        C210   1.391       .  A
C209        H212   1.082       .  S
C210        C583   1.479   1_455  S
C210        C211   1.378   1_455  A
C211        H213   1.082       .  S
N214        N215   1.324       .  A
N214        C218   1.348       .  A
N215        C216   1.346       .  A
C216        C217   1.383       .  A
C216        H219   1.082       .  S
C217        C636   1.480       .  S
C217        C218   1.385       .  A
C218        H220   1.082       .  S
N221        C226   1.354       .  A
N221        C225   1.355       .  A
N221        H253   1.039       .  S
N222        C229   1.353       .  A
N222        C230   1.350       .  A
N223        C228   1.355       .  A
N223        C227   1.354       .  A
N223        H254   1.039       .  S
N224        C231   1.350       .  A
N224        C232   1.353       .  A
C225        C233   1.387       .  A
C225        C241   1.417       .  A
C226        C242   1.418       .  A
C226        C234   1.388       .  A
C227        C235   1.389       .  A
C227        C244   1.419   1_554  A
C228        C243   1.414   1_455  A
C228        C236   1.385       .  A
C229        C241   1.413   1_455  A
C229        C237   1.386       .  A
C230        C244   1.413       .  A
C230        C238   1.387       .  A
C231        C239   1.387       .  A
C231        C242   1.411   1_554  A
C232        C240   1.386       .  A
C232        C243   1.413       .  A
C233        C234   1.374       .  A
C233        H245   1.081       .  S
C234        H246   1.082       .  S
C235        C236   1.374       .  A
C235        H247   1.082       .  S
C236        H248   1.082       .  S
C237        C238   1.372       .  A
C237        H249   1.082       .  S
C238        H250   1.082       .  S
C239        C240   1.371       .  A
C239        H251   1.083       .  S
C240        H252   1.082       .  S
C241        C584   1.491       .  S
C242        C592   1.484       .  S
C243        C579   1.493       .  S
C244        C628   1.485       .  S
N255        N256   1.323       .  A
N255        C259   1.351       .  A
N255       Cu263   2.101       .  S
N256        C257   1.342       .  A
N256       Cu262   2.063       .  S
C257        C258   1.378       .  A
C257        H260   1.082       .  S
C258        C580   1.478       .  S
C258        C259   1.391       .  A
C259        H261   1.082       .  S
Cu262       N265   2.064       .  S
Cu263       N273   2.102       .  S
Cu264       N266   2.085       .  S
Cu264       N272   2.087       .  S
N265        N266   1.321       .  A
N265        C269   1.343       .  A
N266        C267   1.349       .  A
C267        C268   1.389       .  A
C267        H270   1.082       .  S
C268        C575   1.477       .  S
C268        C269   1.380       .  A
C269        H271   1.082       .  S
N272        N273   1.325       .  A
N272        C276   1.347       .  A
N273        C274   1.350       .  A
C274        C275   1.388       .  A
C274        H277   1.082       .  S
C275        C644   1.484       .  S
C275        C276   1.382       .  A
C276        H278   1.082       .  S
N279        N280   1.322   1_455  A
N279        C283   1.347       .  A
N279       Cu287   2.077       .  S
N280        C281   1.343       .  A
N280       Cu286   2.070       .  S
C281        C282   1.380       .  A
C281        H284   1.082       .  S
C282        C571   1.475       .  S
C282        C283   1.387   1_655  A
C283        H285   1.082       .  S
Cu286       N289   2.070       .  S
Cu287       N297   2.077       .  S
Cu288       N290   2.086   1_455  S
Cu288       N296   2.086       .  S
N289        N290   1.322       .  A
N289        C293   1.343       .  A
N290        C291   1.349       .  A
C291        C292   1.389       .  A
C291        H294   1.082       .  S
C292        C567   1.479       .  S
C292        C293   1.381       .  A
C293        H295   1.082       .  S
N296        N297   1.324       .  A
N296        C300   1.347       .  A
N297        C298   1.346       .  A
C298        C299   1.381       .  A
C298        H301   1.082       .  S
C299        C639   1.475       .  S
C299        C300   1.384       .  A
C300        H302   1.082       .  S
N303        N304   1.322   1_565  A
N303        C307   1.351       .  A
N303       Cu311   2.095       .  S
N304        C305   1.343       .  A
N304       Cu310   2.065       .  S
C305        C306   1.379       .  A
C305        H308   1.082       .  S
C306        C563   1.480       .  S
C306        C307   1.391   1_545  A
C307        H309   1.082       .  S
Cu310       N313   2.064       .  S
Cu311       N321   2.096       .  S
Cu312       N314   2.080       .  S
Cu312       N320   2.081       .  S
N313        N314   1.321   1_545  A
N313        C317   1.342       .  A
N314        C315   1.349       .  A
C315        C316   1.389   1_565  A
C315        H318   1.082       .  S
C316        C559   1.476       .  S
C316        C317   1.379       .  A
C317        H319   1.082       .  S
N320        N321   1.325       .  A
N320        C324   1.346       .  A
N321        C322   1.348       .  A
C322        C323   1.384       .  A
C322        H325   1.082       .  S
C323        C655   1.479       .  S
C323        C324   1.383       .  A
C324        H326   1.082       .  S
N327        C332   1.358       .  A
N327        C331   1.359       .  A
N327        H359   1.034       .  S
N328        C335   1.352       .  A
N328        C336   1.353       .  A
N329        C334   1.356       .  A
N329        C333   1.355       .  A
N329        H360   1.032       .  S
N330        C337   1.352       .  A
N330        C338   1.353       .  A
C331        C339   1.387       .  A
C331        C347   1.422       .  A
C332        C348   1.423   1_455  A
C332        C340   1.388       .  A
C333        C341   1.387       .  A
C333        C350   1.420       .  A
C334        C349   1.421   1_545  A
C334        C342   1.387       .  A
C335        C347   1.419   1_545  A
C335        C343   1.387       .  A
C336        C350   1.417   1_455  A
C336        C344   1.386       .  A
C337        C345   1.387       .  A
C337        C348   1.419       .  A
C338        C346   1.387       .  A
C338        C349   1.417       .  A
C339        C340   1.372       .  A
C339        H351   1.082       .  S
C340        H352   1.082       .  S
C341        C342   1.373       .  A
C341        H353   1.082       .  S
C342        H354   1.082       .  S
C343        C344   1.372       .  A
C343        H355   1.082       .  S
C344        H356   1.082       .  S
C345        C346   1.372       .  A
C345        H357   1.082       .  S
C346        H358   1.082       .  S
C347        C600   1.495       .  S
C348        C568   1.493       .  S
C349        C560   1.491       .  S
C350        C576   1.490       .  S
N361        N362   1.322       .  A
N361        C365   1.348       .  A
N361       Cu369   2.087       .  S
N362        C363   1.344       .  A
N362       Cu368   2.075       .  S
C363        C364   1.387       .  A
C363        H366   1.081       .  S
C364        C551   1.483       .  S
C364        C365   1.385       .  A
C365        H367   1.082   1_556  S
Cu368       N371   2.075       .  S
Cu369       N379   2.087       .  S
Cu370       N372   2.084       .  S
Cu370       N378   2.085       .  S
N371        N372   1.322       .  A
N371        C375   1.345       .  A
N372        C373   1.349       .  A
C373        C374   1.389       .  A
C373        H376   1.081       .  S
C374        C555   1.481       .  S
C374        C375   1.382       .  A
C375        H377   1.082       .  S
N378        N379   1.324       .  A
N378        C382   1.346       .  A
N379        C380   1.348       .  A
C380        C381   1.385       .  A
C380        H383   1.082   1_556  S
C381        C663   1.478       .  S
C381        C382   1.382       .  A
C382        H384   1.082       .  S
N385        N386   1.321       .  A
N385        C389   1.349       .  A
N385       Cu393   2.087       .  S
N386        C387   1.343       .  A
N386       Cu392   2.064       .  S
C387        C388   1.379       .  A
C387        H390   1.082       .  S
C388        C543   1.476       .  S
C388        C389   1.389       .  A
C389        H391   1.082       .  S
Cu392       N395   2.064       .  S
Cu393       N403   2.088       .  S
Cu394       N396   2.092       .  S
Cu394       N402   2.093       .  S
N395        N396   1.322       .  A
N395        C399   1.342       .  A
N396        C397   1.349       .  A
C397        C398   1.387       .  A
C397        H400   1.082       .  S
C398        C547   1.482       .  S
C398        C399   1.385       .  A
C399        H401   1.081       .  S
N402        N403   1.325       .  A
N402        C406   1.349       .  A
N403        C404   1.347       .  A
C404        C405   1.382       .  A
C404        H407   1.082       .  S
C405        C632   1.481       .  S
C405        C406   1.386       .  A
C406        H408   1.082       .  S
N409        N410   1.320       .  A
N409        C413   1.347       .  A
N409       Cu417   2.079       .  S
N410        C411   1.343       .  A
N410       Cu416   2.066   1_565  S
C411        C412   1.386       .  A
C411        H414   1.081   1_565  S
C412        C535   1.480       .  S
C412        C413   1.385       .  A
C413        H415   1.082       .  S
Cu416       N419   2.066       .  S
Cu417       N427   2.081       .  S
Cu418       N420   2.097   1_565  S
Cu418       N426   2.098       .  S
N419        N420   1.322       .  A
N419        C423   1.341       .  A
N420        C421   1.353       .  A
C421        C422   1.391       .  A
C421        H424   1.082       .  S
C422        C539   1.479       .  S
C422        C423   1.378       .  A
C423        H425   1.082       .  S
N426        N427   1.325       .  A
N426        C430   1.349       .  A
N427        C428   1.346       .  A
C428        C429   1.380       .  A
C428        H431   1.082       .  S
C429        C648   1.479       .  S
C429        C430   1.387       .  A
C430        H432   1.082       .  S
N433        C438   1.355       .  A
N433        C437   1.355       .  A
N433        H465   1.036       .  S
N434        C441   1.354       .  A
N434        C442   1.353       .  A
N435        C440   1.355       .  A
N435        C439   1.356       .  A
N435        H466   1.036       .  S
N436        C443   1.355       .  A
N436        C444   1.354       .  A
C437        C445   1.387       .  A
C437        C453   1.418       .  A
C438        C454   1.418   1_565  A
C438        C446   1.387       .  A
C439        C447   1.387       .  A
C439        C456   1.420   1_545  A
C440        C455   1.420   1_554  A
C440        C448   1.387       .  A
C441        C453   1.418   1_554  A
C441        C449   1.387       .  A
C442        C456   1.416       .  A
C442        C450   1.386       .  A
C443        C451   1.387       .  A
C443        C454   1.420       .  A
C444        C452   1.386       .  A
C444        C455   1.417       .  A
C445        C446   1.376       .  A
C445        H457   1.082       .  S
C446        H458   1.082       .  S
C447        C448   1.376       .  A
C447        H459   1.082       .  S
C448        H460   1.082       .  S
C449        C450   1.372       .  A
C449        H461   1.082       .  S
C450        H462   1.082       .  S
C451        C452   1.371       .  A
C451        H463   1.082       .  S
C452        H464   1.082       .  S
C453        C556   1.491       .  S
C454        C540   1.494       .  S
C455        C596   1.492       .  S
C456        C564   1.491       .  S
N467        C472   1.354       .  A
N467        C471   1.354       .  A
N467        H499   1.033       .  S
N468        C475   1.353       .  A
N468        C476   1.353       .  A
N469        C474   1.354       .  A
N469        C473   1.352       .  A
N469        H500   1.035       .  S
N470        C477   1.353       .  A
N470        C478   1.353       .  A
C471        C479   1.387       .  A
C471        C487   1.418   1_565  A
C472        C488   1.418       .  A
C472        C480   1.387       .  A
C473        C481   1.386       .  A
C473        C490   1.412   1_655  A
C474        C489   1.415       .  A
C474        C482   1.388       .  A
C475        C487   1.419       .  A
C475        C483   1.387       .  A
C476        C490   1.417       .  A
C476        C484   1.386       .  A
C477        C485   1.387       .  A
C477        C488   1.417   1_655  A
C478        C486   1.386       .  A
C478        C489   1.415   1_565  A
C479        C480   1.376       .  A
C479        H491   1.082       .  S
C480        H492   1.081       .  S
C481        C482   1.374       .  A
C481        H493   1.083       .  S
C482        H494   1.082       .  S
C483        C484   1.372       .  A
C483        H495   1.082       .  S
C484        H496   1.082       .  S
C485        C486   1.373       .  A
C485        H497   1.082       .  S
C486        H498   1.082       .  S
C487        C611   1.489       .  S
C488        C548   1.486       .  S
C489        C536   1.487       .  S
C490        C588   1.485   1_455  S
N501        C506   1.354       .  A
N501        C505   1.355       .  A
N501        H533   1.039       .  S
N502        C509   1.353       .  A
N502        C510   1.352       .  A
N503        C508   1.355       .  A
N503        C507   1.353       .  A
N503        H534   1.039       .  S
N504        C511   1.351       .  A
N504        C512   1.350       .  A
C505        C513   1.389       .  A
C505        C521   1.418       .  A
C506        C522   1.414   1_655  A
C506        C514   1.385       .  A
C507        C515   1.387       .  A
C507        C524   1.414       .  A
C508        C523   1.416   1_554  A
C508        C516   1.387       .  A
C509        C521   1.416   1_554  A
C509        C517   1.387       .  A
C510        C524   1.416   1_655  A
C510        C518   1.386       .  A
C511        C519   1.387       .  A
C511        C522   1.411       .  A
C512        C520   1.386       .  A
C512        C523   1.409       .  A
C513        C514   1.375       .  A
C513        H525   1.082       .  S
C514        H526   1.082       .  S
C515        C516   1.373       .  A
C515        H527   1.082       .  S
C516        H528   1.082       .  S
C517        C518   1.373       .  A
C517        H529   1.081       .  S
C518        H530   1.082       .  S
C519        C520   1.372       .  A
C519        H531   1.082       .  S
C520        H532   1.083       .  S
C521        C552   1.489       .  S
C522        C544   1.486       .  S
C523        C620   1.483       .  S
C524        C572   1.487       .  S
C535        C536   1.343   1_565  D
C535        H537   1.086       .  S
C536        H538   1.086       .  S
C539        C540   1.343       .  D
C539        H541   1.087       .  S
C540        H542   1.086   1_545  S
C543        C544   1.341       .  D
C543        H545   1.087       .  S
C544        H546   1.085       .  S
C547        C548   1.344       .  D
C547        H549   1.086       .  S
C548        H550   1.084       .  S
C551        C552   1.344       .  D
C551        H553   1.086       .  S
C552        H554   1.085       .  S
C555        C556   1.344       .  D
C555        H557   1.087       .  S
C556        H558   1.085       .  S
C559        C560   1.342   1_545  D
C559        H561   1.087       .  S
C560        H562   1.086       .  S
C563        C564   1.342   1_545  D
C563        H565   1.087       .  S
C564        H566   1.086       .  S
C567        C568   1.344       .  D
C567        H569   1.087       .  S
C568        H570   1.086   1_655  S
C571        C572   1.342   1_655  D
C571        H573   1.087       .  S
C572        H574   1.085       .  S
C575        C576   1.343       .  D
C575        H577   1.087       .  S
C576        H578   1.086   1_655  S
C579        C580   1.343       .  D
C579        H581   1.086   1_655  S
C580        H582   1.087       .  S
C583        C584   1.342       .  D
C583        H585   1.087       .  S
C584        H586   1.085   1_655  S
C587        C588   1.342   1_455  D
C587        H589   1.086       .  S
C588        H590   1.085       .  S
C591        C592   1.340       .  D
C591        H593   1.087       .  S
C592        H594   1.086   1_556  S
C595        C596   1.342       .  D
C595        H597   1.087   1_556  S
C596        H598   1.086       .  S
C599        C600   1.344       .  D
C599        H601   1.087   1_565  S
C600        H602   1.086       .  S
C603        C604   1.344       .  D
C603        H605   1.085       .  S
C604        H606   1.087       .  S
C607        C608   1.343   1_565  D
C607        H609   1.086       .  S
C608        H610   1.086       .  S
C611        C612   1.341       .  D
C611        H613   1.085       .  S
C612        H614   1.088       .  S
C615        C616   1.344       .  D
C615        H617   1.087       .  S
C616        H618   1.086   1_556  S
C619        C620   1.341       .  D
C619        H621   1.086   1_556  S
C620        H622   1.086       .  S
C623        C624   1.344       .  D
C623        H625   1.086       .  S
C624        H626   1.085       .  S
C627        C628   1.341   1_554  D
C627        H629   1.087       .  S
C628        H630   1.086       .  S
C631        C632   1.344       .  D
C631        H633   1.087       .  S
C632        H634   1.086   1_455  S
C635        C636   1.345       .  D
C635        H637   1.086       .  S
C636        H638   1.087   1_455  S
C639        C640   1.344       .  D
C639        H641   1.087       .  S
C640        H642   1.087   1_455  S
C643        C644   1.343   1_455  D
C643        H645   1.087       .  S
C644        H646   1.086       .  S
C647        C648   1.343   1_545  D
C647        H649   1.087       .  S
C648        H650   1.087       .  S
C651        C652   1.341   1_545  D
C651        H653   1.087       .  S
C652        H654   1.087       .  S
C655        C656   1.344   1_565  D
C655        H657   1.087       .  S
C656        H658   1.087       .  S
C659        C660   1.345   1_565  D
C659        H661   1.087       .  S
C660        H662   1.086       .  S
C663        C664   1.344   1_556  D
C663        H665   1.087       .  S
C664        H666   1.087       .  S
C667        C668   1.340       .  D
C667        H669   1.087       .  S
C668        H670   1.087   1_556  S
C671        C672   1.342   1_554  D
C671        H673   1.087       .  S
C672        H674   1.086       .  S
C675        C676   1.341   1_556  D
C675        H677   1.087       .  S
C676        H678   1.087       .  S
