geometry optimzed in LAMMPS
_audit_creation_date              2020-11-30 
_audit_creation_method            'lammps2cif' 
_symmetry_space_group_name_H-M    'P1' 
_symmetry_Int_Tables_number       1 
_symmetry_cell_setting            triclinic 
loop_ 
_symmetry_equiv_pos_as_xyz 
  x,y,z 
_cell_length_a                    40.11542167 
_cell_length_b                    42.255088133554274 
_cell_length_c                    28.767343755591384 
_cell_angle_alpha                 89.30388654357606 
_cell_angle_beta                  89.31015212358858 
_cell_angle_gamma                 89.87411193016167 
loop_ 
_atom_site_label 
_atom_site_type_symbol 
_atom_site_fract_x 
_atom_site_fract_y 
_atom_site_fract_z 
_atom_site_charge 
C1          C  0.71554119  0.28476785  0.46170774     0.30600
C2          C  0.71559921  0.25611358  0.04623791     0.30600
C3          C  0.67995872  0.27919015  0.48463657    -0.05600
C4          C  0.73285244  0.25095966  0.46488060    -0.06300
C5          C  0.73215332  0.30343271  0.49973819    -0.06200
C6          C  0.68099163  0.26143793  0.02546632    -0.05600
C7          C  0.73135269  0.23694563  0.00808325    -0.06300
C8          C  0.73268135  0.28887374  0.04315961    -0.06200
C9          C  0.65046661  0.24652534  0.03003835    -0.31600
N10         N  0.62906469  0.25979913  0.99989457     0.14900
C11         C  0.64605784  0.28078371  0.47304288    -0.31600
H12         H  0.63388875  0.29410896  0.44616417     0.16800
C13         C  0.73987024  0.20550680  0.00492175    -0.30600
N14         N  0.74965234  0.19966451  0.46149585     0.13600
C15         C  0.74691847  0.22718604  0.43671236    -0.30600
C16         C  0.74520444  0.31099315  0.07350388    -0.30900
N17         N  0.75175771  0.33821065  0.54946299     0.14100
H18         H  0.74831510  0.30816155  0.11028592     0.16700
C19         C  0.74353085  0.33383585  0.50451268    -0.30900
H20         H  0.74539385  0.35175815  0.47757057     0.16700
H21         H  0.75491638  0.22906503  0.40133525     0.16700
H22         H  0.64433443  0.22661893  0.05240766     0.16800
H23         H  0.73856070  0.18758872  0.03203983     0.16700
C24         C  0.71639000  0.21148056  0.21173680     0.30600
C25         C  0.71511292  0.24100182  0.29434573     0.30600
C26         C  0.68101048  0.21512337  0.23543786    -0.05600
C27         C  0.73508214  0.19444130  0.24957943    -0.06300
C28         C  0.73215876  0.24587359  0.21256567    -0.06200
C29         C  0.68075422  0.23367689  0.27440626    -0.05600
C30         C  0.73471603  0.20916570  0.29277271    -0.06300
C31         C  0.72951790  0.26052347  0.25476966    -0.06200
C32         C  0.64829660  0.24404573  0.28109190    -0.31600
N33         N  0.62808122  0.22698094  0.25408693     0.14900
C34         C  0.64745664  0.20826062  0.22726395    -0.31600
H35         H  0.63688154  0.19148652  0.20380132     0.16800
C36         C  0.74057237  0.18510806  0.32504546    -0.30600
N37         N  0.74453626  0.15736391  0.30236114     0.13600
C38         C  0.74026991  0.16278021  0.25664734    -0.30600
C39         C  0.74139143  0.29095001  0.25091113    -0.30900
N40         N  0.75488288  0.29500170  0.20849034     0.14100
H41         H  0.74121554  0.30895942  0.27731570     0.16700
C42         C  0.75018428  0.26775745  0.18485696    -0.30900
H43         H  0.76082749  0.26450716  0.15121103     0.16700
H44         H  0.73873871  0.14447167  0.23081743     0.16700
H45         H  0.63980856  0.26289654  0.30328996     0.16800
H46         H  0.73944503  0.18699363  0.36212563     0.16700
C47         C  0.86325956  0.52864819  0.04226569     0.30600
C48         C  0.85524614  0.50008033  0.46054768     0.30600
C49         C  0.85488367  0.49297832  0.04392256    -0.05600
C50         C  0.82697592  0.04057651  0.01452740    -0.06300
C51         C  0.89117289  0.53387319  0.00680566    -0.06200
C52         C  0.85435601  0.47833774  0.50269100    -0.05600
C53         C  0.82283817  0.02705962  0.46983843    -0.06300
C54         C  0.88874130  0.51758470  0.46585445    -0.06200
C55         C  0.84252594  0.44797286  0.50969714    -0.31600
N56         N  0.83199548  0.44487241  0.55396161     0.14900
C57         C  0.83665196  0.47338051  0.07399970    -0.31600
H58         H  0.82477647  0.48090577  0.10568775     0.16800
C59         C  0.81071931  0.05201592  0.44248069    -0.30600
N60         N  0.80620505  0.07826387  0.46844203     0.13600
C61         C  0.81631985  0.07159317  0.01178444    -0.30600
C62         C  0.91466388  0.01786159  0.44499850    -0.30900
N63         N  0.93486932  0.03421211  0.47380718     0.14100
H64         H  0.92380513  0.00434413  0.41582515     0.16700
C65         C  0.91597436  0.04630758  0.00803178    -0.30900
H66         H  0.92537021  0.05923031  0.03724156     0.16700
H67         H  0.81922854  0.08957053  0.03769261     0.16700
H68         H  0.83765913  0.43063955  0.48324971     0.16800
H69         H  0.80835261  0.05223512  0.40544144     0.16700
C70         C  0.84894859  0.49581399  0.21879778     0.30600
C71         C  0.85249040  0.46372585  0.29988489     0.30600
C72         C  0.88060762  0.50133763  0.24793416    -0.05600
C73         C  0.81463330  0.00147340  0.24903979    -0.06300
C74         C  0.84588814  0.45903107  0.21552160    -0.06200
C75         C  0.88400329  0.48351722  0.28793430    -0.05600
C76         C  0.81828813  0.98797243  0.29301676    -0.06300
C77         C  0.84889385  0.44312725  0.25758204    -0.06200
C78         C  0.91296197  0.98143389  0.29476458    -0.31600
N79         N  0.92897014  0.00032110  0.26272751     0.14900
C80         C  0.90592438  0.01177185  0.23368912    -0.31600
H81         H  0.91188034  0.02615669  0.20335446     0.16800
C82         C  0.80698180  0.01172808  0.32235834    -0.30600
N83         N  0.79206031  0.03517577  0.29789768     0.13600
C84         C  0.79489084  0.02786626  0.25268275    -0.30600
C85         C  0.83616190  0.41317531  0.25338189    -0.30900
N86         N  0.82370727  0.41021629  0.21045879     0.14100
H87         H  0.83260295  0.39599590  0.28123755     0.16700
C88         C  0.82796755  0.43834326  0.18774163    -0.30900
H89         H  0.81622486  0.44398593  0.15549244     0.16700
H90         H  0.78644522  0.04266656  0.22450179     0.16700
H91         H  0.92568624  0.96808201  0.32142215     0.16800
H92         H  0.81403846  0.01443832  0.35750340     0.16700
O93         O  0.57194655  0.27225684  0.49265231    -0.71100
O94         O  0.48129581  0.24814674  0.00719184    -0.71400
O95         O  0.52987369  0.26105818  0.06872140    -0.71200
O96         O  0.52248596  0.25985444  0.42816458    -0.71200
O97         O  0.53858913  0.21141011  0.42769584    -0.71200
O98         O  0.54046931  0.21117914  0.06951832    -0.71200
O99         O  0.49507833  0.19850743  0.50255128    -0.71200
O100        O  0.58600726  0.22260293  0.99771274    -0.71300
V101        V  0.52672457  0.25933959  0.99876058     1.35200
V102        V  0.54002808  0.21197287  0.99888258     1.35200
C103        C  0.59465262  0.25130677  0.99577480     0.78100
C104        C  0.47325784  0.21921816  0.01034970     0.78100
C105        C  0.53482815  0.23615306  0.09434241     0.78000
C106        C  0.52960222  0.23570498  0.40232182     0.78000
O107        O  0.52619386  0.21100010  0.31853066    -0.71100
O108        O  0.52845355  0.21124997  0.17726904    -0.71400
O109        O  0.57389310  0.20626431  0.24839257    -0.71200
O110        O  0.47887040  0.21647592  0.24515207    -0.71200
O111        O  0.48509500  0.26733065  0.23983492    -0.71200
O112        O  0.57910109  0.25725271  0.25273958    -0.71200
O113        O  0.53631177  0.26154547  0.17667953    -0.71200
O114        O  0.52853484  0.26170072  0.31806772    -0.71300
V115        V  0.52672300  0.21225878  0.24755770     1.35200
V116        V  0.53207301  0.26093996  0.24705555     1.35200
C117        C  0.52792158  0.23616320  0.34394540     0.78100
C118        C  0.53334635  0.23631458  0.15177391     0.78100
C119        C  0.59253664  0.23021494  0.25165560     0.78000
C120        C  0.46594707  0.24364220  0.23839863     0.78000
O121        O  0.08243236  0.02858521  0.49109789    -0.71100
O122        O  0.99018017  0.04849536  0.98823157    -0.71400
O123        O  0.03429989  0.03798847  0.06185366    -0.71200
O124        O  0.03651715  0.03844362  0.42022978    -0.71200
O125        O  0.03385242  0.48812838  0.42266881    -0.71200
O126        O  0.02659132  0.48894654  0.06372995    -0.71200
O127        O  0.98469248  0.49860579  0.48602297    -0.71200
O128        O  0.07639443  0.47804803  0.99764217    -0.71300
V129        V  0.03588857  0.03720931  0.99076024     1.35200
V130        V  0.03059500  0.48944304  0.99285608     1.35200
C131        C  0.09240400  0.99982485  0.99340745     0.78100
C132        C  0.96922971  0.02687222  0.98163479     0.78100
C133        C  0.02674192  0.01342311  0.08765242     0.78000
C134        C  0.03197079  0.01341576  0.39543411     0.78000
O135        O  0.97602414  0.03203566  0.24667209    -0.71100
O136        O  0.06970192  0.04542249  0.23990488    -0.71400
O137        O  0.02247827  0.03851292  0.17138477    -0.71200
O138        O  0.02496829  0.03854971  0.31279509    -0.71200
O139        O  0.03996272  0.48847976  0.31450270    -0.71200
O140        O  0.03227194  0.48803911  0.17366613    -0.71200
O141        O  0.08260595  0.49419802  0.23734190    -0.71200
O142        O  0.98900693  0.48203566  0.25326715    -0.71300
V143        V  0.02322663  0.03759414  0.24244742     1.35200
V144        V  0.03576169  0.48917196  0.24442094     1.35200
C145        C  0.96419946  0.00463870  0.25422010     0.78100
C146        C  0.08941069  0.02228691  0.23654943     0.78100
C147        C  0.02525471  0.01328442  0.14608813     0.78000
C148        C  0.03065973  0.01353925  0.33806271     0.78000
C149        C  0.36074853  0.21885097  0.45637590     0.30600
C150        C  0.35719455  0.24907387  0.03797028     0.30600
C151        C  0.39012313  0.21374240  0.48935833    -0.05600
C152        C  0.35357819  0.25508137  0.45401977    -0.06300
C153        C  0.33190592  0.20729398  0.48709537    -0.06200
C154        C  0.38906003  0.23034766  0.03026859    -0.05600
C155        C  0.35435758  0.27008289  0.99549567    -0.06300
C156        C  0.32986046  0.22254101  0.03101110    -0.06200
C157        C  0.42004752  0.22776281  0.04969369    -0.31600
N158        N  0.43959842  0.21027387  0.52106630     0.14900
C159        C  0.42015574  0.19832750  0.48769144    -0.31600
H160        H  0.42886009  0.18282096  0.46083516     0.16800
C161        C  0.34103106  0.29998576  0.99051912    -0.30600
N162        N  0.32852349  0.30291965  0.44804189     0.13600
C163        C  0.33344874  0.27486722  0.42670635    -0.30600
C164        C  0.31785365  0.19909230  0.06147036    -0.30900
N165        N  0.31166402  0.17213209  0.53777038     0.14100
H166        H  0.31812960  0.19983730  0.09848454     0.16700
C167        C  0.32109071  0.17666452  0.49334877    -0.30900
H168        H  0.32388665  0.15746298  0.46912774     0.16700
H169        H  0.32034330  0.26820392  0.39636488     0.16700
H170        H  0.42903836  0.24089743  0.07893189     0.16800
H171        H  0.33756063  0.31746251  0.01736887     0.16700
C172        C  0.34559137  0.28443053  0.20038636     0.30600
C173        C  0.34411322  0.25427914  0.28311566     0.30600
C174        C  0.37959825  0.26859796  0.21448340    -0.05600
C175        C  0.33754547  0.30502431  0.24146124    -0.06300
C176        C  0.31973506  0.25632580  0.20587433    -0.06200
C177        C  0.37727655  0.25131575  0.25517445    -0.05600
C178        C  0.33609627  0.29009935  0.28404956    -0.06300
C179        C  0.32044213  0.24070467  0.24884864    -0.06200
C180        C  0.40752462  0.23635095  0.26267327    -0.31600
N181        N  0.43028439  0.24762624  0.23216276     0.14900
C182        C  0.41368238  0.26719733  0.20193565    -0.31600
H183        H  0.42589958  0.28008559  0.17403290     0.16800
C184        C  0.32031601  0.31136980  0.31369819    -0.30600
N185        N  0.31486487  0.33903898  0.29033799     0.13600
C186        C  0.32463196  0.33492199  0.24578025    -0.30600
C187        C  0.31292650  0.20949866  0.24184986    -0.30900
N188        N  0.30402764  0.20565351  0.19771772     0.14100
H189        H  0.31665352  0.19010847  0.26592719     0.16700
C190        C  0.30759337  0.23377355  0.17545275    -0.30900
H191        H  0.30083959  0.23740794  0.14011753     0.16700
H192        H  0.32017907  0.35166486  0.21776665     0.16700
H193        H  0.41330954  0.21977998  0.29026988     0.16800
H194        H  0.31099228  0.30656835  0.34805785     0.16700
C195        C  0.22161858  0.50021497  0.45018332     0.30600
C196        C  0.21885431  0.47011609  0.03337024     0.30600
C197        C  0.23891361  0.46716406  0.45198297    -0.05600
C198        C  0.23081582  0.01953493  0.48800062    -0.06300
C199        C  0.18592393  0.49226703  0.46849848    -0.06200
C200        C  0.23661273  0.45226990  0.99496237    -0.05600
C201        C  0.23084993  0.00484997  0.03058023    -0.06300
C202        C  0.18445216  0.47737578  0.01189364    -0.06200
C203        C  0.25097490  0.42293588  0.99242193    -0.31600
N204        N  0.26314969  0.41923134  0.44907555     0.14900
C205        C  0.25668709  0.44604307  0.42409707    -0.31600
H206        H  0.26542329  0.44978420  0.38918049     0.16800
C207        C  0.24604881  0.02643480  0.05963259    -0.30600
N208        N  0.25281107  0.05367540  0.53579591     0.13600
C209        C  0.24399179  0.04936049  0.49160204    -0.30600
C210        C  0.15142244  0.47876673  0.02664209    -0.30900
N211        N  0.12730566  0.99281350  0.49084293     0.14100
H212        H  0.13622643  0.97422253  0.05956166     0.16700
C213        C  0.15343980  0.49958267  0.45648694    -0.30900
H214        H  0.13930732  0.01155540  0.42291312     0.16700
H215        H  0.24685287  0.06691714  0.46412188     0.16700
H216        H  0.25241390  0.40541389  0.02011534     0.16800
H217        H  0.25248484  0.02252203  0.09481267     0.16700
C218        C  0.21603737  0.50502016  0.19907118     0.30600
C219        C  0.21586991  0.53461447  0.28130191     0.30600
C220        C  0.22348526  0.48440703  0.24121184    -0.05600
C221        C  0.23445760  0.03518897  0.20001281    -0.06300
C222        C  0.18227480  0.52008391  0.21282110    -0.06200
C223        C  0.22344987  0.49878675  0.28315795    -0.05600
C224        C  0.23496357  0.04908081  0.24341926    -0.06300
C225        C  0.18206414  0.53549519  0.25595124    -0.06200
C226        C  0.23046976  0.47502710  0.31530180    -0.31600
N227        N  0.23582926  0.44722292  0.29311213     0.14900
C228        C  0.23098630  0.45282986  0.24761110    -0.31600
H229        H  0.23508154  0.43549711  0.22071159     0.16800
C230        C  0.24577715  0.07975422  0.23831580    -0.30600
N231        N  0.25091792  0.08593663  0.19308737     0.13600
C232        C  0.24229015  0.05992397  0.16914667    -0.30600
C233        C  0.14904257  0.53734810  0.26953018    -0.30900
N234        N  0.12451427  0.02733912  0.23342273     0.14100
H235        H  0.13955424  0.54263161  0.30367554     0.16700
C236        C  0.14962731  0.51596092  0.20005522    -0.30900
H237        H  0.14046334  0.50454046  0.16932658     0.16700
H238        H  0.23706716  0.06108676  0.13297860     0.16700
H239        H  0.23090321  0.47753740  0.35188336     0.16800
H240        H  0.24654207  0.09744758  0.26521506     0.16700
C241        C  0.19347516  0.04453693  0.39824086    -0.05100
C242        C  0.22507695  0.52162268  0.40880729     0.00800
C243        C  0.25610506  0.52805613  0.38540471    -0.07800
C244        C  0.25411037  0.54482143  0.34367069    -0.05200
C245        C  0.22246501  0.55140333  0.32572983     0.00800
C246        C  0.19193866  0.05996729  0.35561686    -0.07700
C247        C  0.17012596  0.08882077  0.34974388     0.62700
H248        H  0.17576253  0.05094731  0.42508948     0.13400
H249        H  0.27590329  0.54548197  0.32100173     0.13400
C250        C  0.29105970  0.51770918  0.39924029     0.62900
F251        F  0.13733564  0.08162582  0.36069784    -0.22300
F252        F  0.17203851  0.10069743  0.30473744    -0.19600
F253        F  0.18073445  0.11201098  0.37966032    -0.19300
F254        F  0.30332593  0.49670098  0.36673686    -0.19300
F255        F  0.29324393  0.50390002  0.44266099    -0.19600
F256        F  0.31158051  0.54399856  0.39902246    -0.22300
C257        C  0.24680752  0.95724067  0.09923379    -0.05100
C258        C  0.22129597  0.45189512  0.07813602     0.00800
C259        C  0.19317889  0.44745159  0.10611412    -0.07800
C260        C  0.19202056  0.46484578  0.14667120    -0.05200
C261        C  0.21980254  0.48337341  0.15871409     0.00800
C262        C  0.24682588  0.97372440  0.14095044    -0.07700
C263        C  0.28122304  0.97913160  0.16194523     0.62700
H264        H  0.26999612  0.95436799  0.07994942     0.13400
H265        H  0.17117387  0.46167174  0.17030559     0.13400
C266        C  0.17064706  0.41932577  0.09973186     0.62900
F267        F  0.29778479  0.95040935  0.16447892    -0.22300
F268        F  0.28090764  0.99125596  0.20612160    -0.19600
F269        F  0.29969211  0.99924742  0.13349803    -0.19300
F270        F  0.17953780  0.39575698  0.13099295    -0.19300
F271        F  0.17374995  0.40761892  0.05513353    -0.19600
F272        F  0.13770977  0.42739923  0.10805576    -0.22300
C273        C  0.25656479  0.17305010  0.17921436    -0.05100
C274        C  0.29119437  0.17653828  0.18043003     0.00800
C275        C  0.31204725  0.14971774  0.17519721    -0.07800
C276        C  0.29712662  0.11975858  0.17152013    -0.05200
C277        C  0.26251131  0.11593716  0.17578412     0.00800
C278        C  0.24175365  0.14304166  0.17769413    -0.07700
C279        C  0.20428151  0.14119332  0.18377170     0.62700
H280        H  0.24103123  0.19378809  0.18418413     0.13400
H281        H  0.31247726  0.09865156  0.17105148     0.13400
C282        C  0.34977311  0.15240672  0.17766099     0.62900
F283        F  0.18919703  0.16277499  0.15416276    -0.22300
F284        F  0.19585133  0.14863864  0.22909593    -0.19600
F285        F  0.19196652  0.11150966  0.17408797    -0.19300
F286        F  0.35921195  0.16002753  0.22214764    -0.19300
F287        F  0.36118536  0.17561218  0.14725165    -0.19600
F288        F  0.36530590  0.12424506  0.16621849    -0.22300
C289        C  0.26192242  0.36349713  0.31416590    -0.05100
C290        C  0.29633824  0.36629819  0.30564719     0.00800
C291        C  0.31102928  0.39672309  0.30416953    -0.07800
C292        C  0.29023515  0.42351416  0.30552821    -0.05200
C293        C  0.25549059  0.42070452  0.30866289     0.00800
C294        C  0.24115588  0.39050789  0.31580829    -0.07700
C295        C  0.20398494  0.38726391  0.32377068     0.62700
H296        H  0.25122836  0.34001307  0.31614505     0.13400
H297        H  0.30066945  0.44691156  0.30023153     0.13400
C298        C  0.34850743  0.40075598  0.29970718     0.62900
F299        F  0.19485723  0.35607598  0.33182823    -0.22300
F300        F  0.18703033  0.39840163  0.28532135    -0.19600
F301        F  0.19461516  0.40474516  0.36213925    -0.19300
F302        F  0.35952249  0.39150335  0.25628949    -0.19300
F303        F  0.36411068  0.38251039  0.33325115    -0.19600
F304        F  0.35791102  0.43194437  0.30559670    -0.22300
C305        C  0.26367808  0.14002943  0.05926369    -0.05100
C306        C  0.29865948  0.14249240  0.55506720     0.00800
C307        C  0.31819626  0.11447787  0.55347442    -0.07800
C308        C  0.30211784  0.08491839  0.55267639    -0.05200
C309        C  0.26733426  0.08262825  0.55173348     0.00800
C310        C  0.24753280  0.11056801  0.05586913    -0.07700
C311        C  0.20985290  0.10951555  0.05156411     0.62700
H312        H  0.24921526  0.16169491  0.05900620     0.13400
H313        H  0.31679277  0.06356089  0.54838752     0.13400
C314        C  0.35578850  0.11481591  0.54794436     0.62900
F315        F  0.19535735  0.13826075  0.06254943    -0.22300
F316        F  0.19659036  0.08669504  0.08112956    -0.19600
F317        F  0.20171507  0.10262351  0.50623344    -0.19300
F318        F  0.36892516  0.14438737  0.05817531    -0.19300
F319        F  0.36428249  0.10532817  0.50349447    -0.19600
F320        F  0.36974985  0.09389392  0.57955261    -0.22300
C321        C  0.32950895  0.35879956  0.42837698    -0.05100
C322        C  0.31091415  0.33084098  0.43311666     0.00800
C323        C  0.27541905  0.33252281  0.93522513    -0.07800
C324        C  0.26023429  0.36262107  0.93461925    -0.05200
C325        C  0.27927036  0.39061934  0.43416939     0.00800
C326        C  0.31432612  0.38880082  0.43019550    -0.07700
C327        C  0.33558799  0.41833397  0.43230221     0.62700
H328        H  0.35641840  0.35676555  0.42782857     0.13400
H329        H  0.23345640  0.36480176  0.93853927     0.13400
C330        C  0.25435875  0.30302776  0.94166415     0.62900
F331        F  0.36930088  0.41130933  0.43056371    -0.22300
F332        F  0.32938199  0.43381900  0.97292183    -0.19600
F333        F  0.32845815  0.43805533  0.39518243    -0.19300
F334        F  0.22072674  0.31016195  0.94525294    -0.19300
F335        F  0.26415961  0.28704930  0.48198120    -0.19600
F336        F  0.25889032  0.28350714  0.90395719    -0.22300
C337        C  0.37630692  0.24693161  0.35161133    -0.05100
C338        C  0.34658276  0.23947436  0.32999010     0.00800
C339        C  0.32534700  0.21596161  0.34984313    -0.07800
C340        C  0.33849682  0.19700299  0.38532310    -0.03600
C341        C  0.36758403  0.20664930  0.40804046     0.00800
C342        C  0.39050168  0.22577973  0.38195554    -0.07700
C343        C  0.42786628  0.22930109  0.38942697     0.62700
H344        H  0.39057121  0.26730124  0.33957414     0.13400
H345        H  0.32182610  0.18033495  0.40189303     0.13400
C346        C  0.28748694  0.21573008  0.34520227     0.62900
F347        F  0.44303010  0.19996091  0.38960439    -0.22300
F348        F  0.43411389  0.24574124  0.42943938    -0.19600
F349        F  0.44303010  0.24637828  0.35364674    -0.19300
F350        F  0.27691901  0.18752462  0.32650924    -0.19300
F351        F  0.27574086  0.24081472  0.31882141    -0.19600
F352        F  0.27297736  0.21829257  0.38891060    -0.22300
C353        C  0.32147590  0.27975875  0.09024395    -0.05100
C354        C  0.35437118  0.27089376  0.07818828     0.00800
C355        C  0.37985710  0.29269366  0.09207132    -0.07800
C356        C  0.37369966  0.30898216  0.13321802    -0.05200
C357        C  0.34362246  0.30401137  0.15643876     0.00800
C358        C  0.31597000  0.29912948  0.12823581    -0.07700
C359        C  0.28185995  0.31240466  0.14003558     0.62700
H360        H  0.30047615  0.27133655  0.07058877     0.13400
H361        H  0.39315479  0.32249708  0.14957195     0.13400
C362        C  0.41064799  0.30360813  0.06465859     0.62900
F363        F  0.28388416  0.34500651  0.14216907    -0.22300
F364        F  0.27042582  0.30085578  0.18241383    -0.19600
F365        F  0.25883505  0.30482421  0.10649093    -0.19300
F366        F  0.40828231  0.33596430  0.05731818    -0.19300
F367        F  0.41464239  0.29018464  0.02160849    -0.19600
F368        F  0.43899697  0.29770008  0.09023956    -0.22300
C369        C  0.88019751  0.46078842  0.40774066    -0.05100
C370        C  0.85127331  0.47815608  0.42053601     0.00800
C371        C  0.81346626  0.96538142  0.40433488    -0.07800
C372        C  0.81420078  0.94468299  0.36647605    -0.05200
C373        C  0.85092121  0.44306093  0.34301993     0.00800
C374        C  0.87950773  0.44130666  0.36939992    -0.07700
C375        C  0.90486757  0.41544273  0.36157119     0.62700
H376        H  0.90169403  0.45995588  0.42993301     0.13400
H377        H  0.79124019  0.93867342  0.34924766     0.13400
C378        C  0.77936397  0.97368581  0.42557550     0.62900
F379        F  0.93478733  0.42250486  0.38253233    -0.22300
F380        F  0.91062641  0.41127577  0.31452172    -0.19600
F381        F  0.89272400  0.38745481  0.38043820    -0.19300
F382        F  0.76872598  0.00300568  0.41020610    -0.19300
F383        F  0.77981007  0.97360468  0.47346048    -0.19600
F384        F  0.75555028  0.95184898  0.41289137    -0.22300
C385        C  0.84834259  0.05344759  0.11562730    -0.05100
C386        C  0.87493180  0.53741422  0.08943415     0.00800
C387        C  0.89571154  0.51463106  0.11213357    -0.07800
C388        C  0.88018584  0.49862260  0.14795423    -0.05200
C389        C  0.85463195  0.51313056  0.17377061     0.00800
C390        C  0.84354339  0.04392704  0.16163948    -0.07700
C391        C  0.84373163  0.07082152  0.19600385     0.62700
H392        H  0.83967809  0.07630468  0.10390444     0.13400
H393        H  0.89039915  0.47602891  0.15894677     0.13400
C394        C  0.92959188  0.50222179  0.09561737     0.62900
F395        F  0.86831204  0.09235484  0.18337977    -0.22300
F396        F  0.85122624  0.06044981  0.23987034    -0.19600
F397        F  0.81356452  0.08672770  0.19596290    -0.19300
F398        F  0.92736435  0.48733160  0.05335678    -0.19300
F399        F  0.94267376  0.48030810  0.12669256    -0.19600
F400        F  0.95223407  0.52671206  0.09313078    -0.22300
C401        C  0.78693569  0.12124101  0.32933588    -0.05100
C402        C  0.75321805  0.12684292  0.32082267     0.00800
C403        C  0.73161311  0.10086740  0.31516467    -0.07800
C404        C  0.74526023  0.07034763  0.31186095    -0.05200
C405        C  0.77968645  0.06501364  0.31465832     0.00800
C406        C  0.80095822  0.09082676  0.32567971    -0.07700
C407        C  0.83854666  0.08903252  0.33076776     0.62700
H408        H  0.80315461  0.14146336  0.33369339     0.13400
H409        H  0.72913545  0.05063895  0.30389527     0.13400
C410        C  0.69442335  0.10480492  0.30887748     0.62900
F411        F  0.84713748  0.10065500  0.37345879    -0.22300
F412        F  0.85358367  0.10787145  0.29691966    -0.19600
F413        F  0.85136840  0.05886837  0.32784634    -0.19300
F414        F  0.68627529  0.09758951  0.26365757    -0.19300
F415        F  0.68371583  0.13524033  0.31823763    -0.19600
F416        F  0.67767232  0.08434886  0.33887088    -0.22300
C417        C  0.75425794  0.35213283  0.19576829    -0.05100
C418        C  0.77223054  0.32356525  0.19465689     0.00800
C419        C  0.80746130  0.32457042  0.19167163    -0.07800
C420        C  0.82348718  0.35425117  0.19137862    -0.05200
C421        C  0.80559273  0.38262900  0.19624060     0.00800
C422        C  0.77035693  0.38168328  0.19819066    -0.07700
C423        C  0.75011795  0.41136540  0.20737813     0.62700
H424        H  0.72739247  0.35072624  0.19910842     0.13400
H425        H  0.85043352  0.35557141  0.19117622     0.13400
C426        C  0.82804462  0.29444061  0.19278215     0.62900
F427        F  0.71638238  0.40492260  0.21156677    -0.22300
F428        F  0.75453377  0.43279425  0.17122119    -0.19600
F429        F  0.76026610  0.42496652  0.24834902    -0.19300
F430        F  0.82188712  0.27695526  0.15354683    -0.19300
F431        F  0.81987552  0.27666346  0.23197303    -0.19600
F432        F  0.86189040  0.30071473  0.19389725    -0.22300
C433        C  0.76005052  0.11213055  0.94561933    -0.05100
C434        C  0.79414843  0.10884668  0.45333258     0.00800
C435        C  0.81422422  0.13648776  0.45507609    -0.07800
C436        C  0.79884694  0.16641815  0.45161075    -0.05200
C437        C  0.76418627  0.16970923  0.44871108     0.00800
C438        C  0.74451431  0.14211291  0.94508690    -0.07700
C439        C  0.70675437  0.14408915  0.94555110     0.62700
H440        H  0.74510182  0.09083336  0.94520541     0.13400
H441        H  0.81376301  0.18757350  0.45538556     0.13400
C442        C  0.85158904  0.13599626  0.46269438     0.62900
F443        F  0.69222648  0.11537434  0.43456195    -0.22300
F444        F  0.69584739  0.16635931  0.41399524    -0.19600
F445        F  0.69543279  0.15249909  0.98925549    -0.19300
F446        F  0.86507329  0.10588499  0.46243502    -0.19300
F447        F  0.85840558  0.14914556  0.00562957    -0.19600
F448        F  0.86752112  0.15352025  0.92854894    -0.22300
C449        C  0.80427771  0.36169076  0.07275116    -0.05100
C450        C  0.77003273  0.36516619  0.56542512     0.00800
C451        C  0.75566881  0.39577983  0.56590406    -0.07800
C452        C  0.77677964  0.42232001  0.56789637    -0.05200
C453        C  0.81148863  0.41880395  0.56922071     0.00800
C454        C  0.82542875  0.38817301  0.07434740    -0.07700
C455        C  0.86271275  0.38369020  0.07966291     0.62700
H456        H  0.81460226  0.33799538  0.07330902     0.13400
H457        H  0.76662689  0.44595899  0.56406490     0.13400
C458        C  0.71835601  0.40027946  0.56221668     0.62900
F459        F  0.87097718  0.35220917  0.08707148    -0.22300
F460        F  0.87353744  0.40078868  0.11724711    -0.19600
F461        F  0.87942785  0.39408808  0.54028281    -0.19300
F462        F  0.70216982  0.38063130  0.09372835    -0.19300
F463        F  0.70816094  0.39341343  0.51777280    -0.19600
F464        F  0.70904373  0.43109991  0.57190991    -0.22300
C465        C  0.68852032  0.29284152  0.38792624    -0.05100
C466        C  0.71715617  0.29901303  0.41309656     0.00800
C467        C  0.74747420  0.29492167  0.38792117    -0.07800
C468        C  0.74682954  0.27426686  0.35002904    -0.05200
C469        C  0.71699488  0.25803725  0.33919236     0.00800
C470        C  0.68818765  0.26399636  0.36547961    -0.07700
C471        C  0.66496121  0.23741710  0.38291305     0.62700
H472        H  0.66598035  0.30547455  0.39473091     0.13400
H473        H  0.76939904  0.26949656  0.33026872     0.13400
C474        C  0.77999930  0.30980189  0.40244089     0.62900
F475        F  0.67308266  0.22838505  0.42739679    -0.22300
F476        F  0.66758052  0.21009552  0.35734980    -0.19600
F477        F  0.63214756  0.24749290  0.38314297    -0.19300
F478        F  0.79065832  0.29668774  0.44392047    -0.19300
F479        F  0.77571607  0.34203646  0.40726045    -0.19600
F480        F  0.80488727  0.30522195  0.36944128    -0.22300
C481        C  0.74722063  0.22184396  0.10195800    -0.05100
C482        C  0.71783182  0.23952617  0.09196986     0.00800
C483        C  0.68887310  0.23328338  0.11799144    -0.07800
C484        C  0.68853490  0.20382662  0.13922812    -0.05200
C485        C  0.71709762  0.19626795  0.16426633     0.00800
C486        C  0.74719249  0.19961592  0.13862272    -0.07700
C487        C  0.77851905  0.18143689  0.15069564     0.62700
H488        H  0.76987857  0.22624684  0.08206221     0.13400
H489        H  0.66535892  0.19219271  0.14574937     0.13400
C490        C  0.66350491  0.25860755  0.13230847     0.62900
F491        F  0.77114072  0.14963023  0.15572163    -0.22300
F492        F  0.79183740  0.19249120  0.19144632    -0.19600
F493        F  0.80252717  0.18452172  0.11595818    -0.19300
F494        F  0.63130090  0.24755155  0.12769249    -0.19300
F495        F  0.66715469  0.28657071  0.10741538    -0.19600
F496        F  0.66788208  0.26639850  0.17813048    -0.22300
C497        C  0.71570065  0.28468489  0.96172666     0.30600
C498        C  0.71537277  0.25620275  0.54621939     0.30600
C499        C  0.68014032  0.27908560  0.98469133    -0.05600
C500        C  0.73303718  0.25088901  0.96487777    -0.06300
C501        C  0.73231870  0.30335600  0.99973640    -0.06200
C502        C  0.68078490  0.26155888  0.52543248    -0.05600
C503        C  0.73110877  0.23701326  0.50807396    -0.06300
C504        C  0.73249303  0.28894390  0.54315593    -0.06200
C505        C  0.65026196  0.24665540  0.53000249    -0.31600
N506        N  0.62887462  0.25991367  0.49983476     0.14900
C507        C  0.64623730  0.28069686  0.97314040    -0.31600
H508        H  0.63405782  0.29405614  0.94630824     0.16800
C509        C  0.73955624  0.20555615  0.50491478    -0.30600
N510        N  0.74992534  0.19962604  0.96148322     0.13600
C511        C  0.74710113  0.22713003  0.93668623    -0.30600
C512        C  0.74512057  0.31101323  0.57349636    -0.30900
N513        N  0.75175758  0.33820920  0.04946894     0.14100
H514        H  0.74824512  0.30816636  0.61027473     0.16700
C515        C  0.74358911  0.33379268  0.00450800    -0.30900
H516        H  0.74541678  0.35170940  0.97755334     0.16700
H517        H  0.75503727  0.22900435  0.90128625     0.16700
H518        H  0.64411992  0.22675718  0.55238083     0.16800
H519        H  0.73820297  0.18764547  0.53204085     0.16700
C520        C  0.71624921  0.21151716  0.71169112     0.30600
C521        C  0.71505469  0.24097434  0.79436194     0.30600
C522        C  0.68088141  0.21522891  0.73539123    -0.05600
C523        C  0.73488545  0.19440716  0.74951538    -0.06300
C524        C  0.73208670  0.24588142  0.71257337    -0.06200
C525        C  0.68066426  0.23374751  0.77440352    -0.05600
C526        C  0.73458753  0.20909591  0.79270751    -0.06300
C527        C  0.72948799  0.26049825  0.75480753    -0.06200
C528        C  0.64821449  0.24416158  0.78111400    -0.31600
N529        N  0.62797387  0.22717083  0.75403595     0.14900
C530        C  0.64731824  0.20844475  0.72718610    -0.31600
H531        H  0.63670796  0.19171692  0.70368876     0.16800
C532        C  0.74073882  0.18505817  0.82490484    -0.30600
N533        N  0.74476640  0.15734024  0.80214720     0.13600
C534        C  0.74028256  0.16276619  0.75647214    -0.30600
C535        C  0.74136965  0.29092214  0.75097980    -0.30900
N536        N  0.75483667  0.29499777  0.70855235     0.14100
H537        H  0.74120354  0.30891954  0.77740196     0.16700
C538        C  0.75010847  0.26777646  0.68487759    -0.30900
H539        H  0.76073103  0.26454935  0.65121383     0.16700
H540        H  0.73876166  0.14447184  0.73062036     0.16700
H541        H  0.63974754  0.26296948  0.80340520     0.16800
H542        H  0.73980938  0.18692835  0.86199255     0.16700
C543        C  0.86326009  0.52865023  0.54225196     0.30600
C544        C  0.85528735  0.50009177  0.96054516     0.30600
C545        C  0.85487199  0.49297920  0.54392960    -0.05600
C546        C  0.82692309  0.04064850  0.51462060    -0.06300
C547        C  0.89115938  0.53386275  0.50676387    -0.06200
C548        C  0.85438249  0.47834427  0.00267860    -0.05600
C549        C  0.82295091  0.02697857  0.96973899    -0.06300
C550        C  0.88877042  0.51760682  0.96588482    -0.06200
C551        C  0.84254568  0.44798217  0.00966445    -0.31600
N552        N  0.83201224  0.44487159  0.05392527     0.14900
C553        C  0.83664098  0.47338514  0.57402099    -0.31600
H554        H  0.82477641  0.48090672  0.60571904     0.16800
C555        C  0.81087372  0.05193856  0.94234581    -0.30600
N556        N  0.80629563  0.07817614  0.96830563     0.13600
C557        C  0.81629842  0.07168044  0.51189209    -0.30600
C558        C  0.91476747  0.01784650  0.94501992    -0.30900
N559        N  0.93496462  0.03418063  0.97385380     0.14100
H560        H  0.92391548  0.00435942  0.91581911     0.16700
C561        C  0.91588787  0.04637333  0.50796268    -0.30900
H562        H  0.92528929  0.05931029  0.53715766     0.16700
H563        H  0.81926271  0.08965834  0.53778962     0.16700
H564        H  0.83767654  0.43065760  0.98320568     0.16800
H565        H  0.80859619  0.05217932  0.90529560     0.16700
C566        C  0.84899451  0.49579753  0.71873669     0.30600
C567        C  0.85258750  0.46373916  0.79984179     0.30600
C568        C  0.88067478  0.50131506  0.74782289    -0.05600
C569        C  0.81478785  0.00128170  0.74904829    -0.06300
C570        C  0.84591611  0.45901681  0.71548468    -0.06200
C571        C  0.88408696  0.48352305  0.78783941    -0.05600
C572        C  0.81850393  0.98781322  0.79304614    -0.06300
C573        C  0.84895931  0.44312533  0.75755500    -0.06200
C574        C  0.91313501  0.98144338  0.79480973    -0.31600
N575        N  0.92909597  0.00035114  0.76277460     0.14900
C576        C  0.90605289  0.01175059  0.73370259    -0.31600
H577        H  0.91199908  0.02612210  0.70334990     0.16800
C578        C  0.80732797  0.01164276  0.82236846    -0.30600
N579        N  0.79240556  0.03509779  0.79791738     0.13600
C580        C  0.79510443  0.02771146  0.75271947    -0.30600
C581        C  0.83619071  0.41318416  0.75341059    -0.30900
N582        N  0.82366661  0.41022413  0.71052958     0.14100
H583        H  0.83265484  0.39601560  0.78128687     0.16700
C584        C  0.82791965  0.43834037  0.68777904    -0.30900
H585        H  0.81612445  0.44398955  0.65556504     0.16700
H586        H  0.78661228  0.04248074  0.72453009     0.16700
H587        H  0.92589001  0.96811875  0.82146386     0.16800
H588        H  0.81447641  0.01437268  0.85747419     0.16700
O589        O  0.57215360  0.27220288  0.99266916    -0.71100
O590        O  0.48113247  0.24805411  0.50720304    -0.71400
O591        O  0.52966750  0.26107444  0.56871885    -0.71200
O592        O  0.52263329  0.25989985  0.92818659    -0.71200
O593        O  0.53867660  0.21143696  0.92767023    -0.71200
O594        O  0.54036880  0.21121634  0.56955593    -0.71200
O595        O  0.49515039  0.19857980  0.00247170    -0.71200
O596        O  0.58587484  0.22267543  0.49770492    -0.71300
V597        V  0.52654108  0.25932295  0.49875195     1.35200
V598        V  0.53992545  0.21197635  0.49891490     1.35200
C599        C  0.59447538  0.25138881  0.49573168     0.78100
C600        C  0.47315564  0.21911174  0.51044672     0.78100
C601        C  0.53466593  0.23618738  0.59436334     0.78000
C602        C  0.52968050  0.23574311  0.90232878     0.78000
O603        O  0.52618213  0.21103961  0.81856483    -0.71100
O604        O  0.52832993  0.21129233  0.67730824    -0.71400
O605        O  0.57381737  0.20639808  0.74837642    -0.71200
O606        O  0.47876514  0.21642101  0.74528205    -0.71200
O607        O  0.48488023  0.26728675  0.73995743    -0.71200
O608        O  0.57894263  0.25739451  0.75271395    -0.71200
O609        O  0.53608314  0.26160197  0.67670352    -0.71200
O610        O  0.52842606  0.26174541  0.81810151    -0.71300
V611        V  0.52663950  0.21230064  0.74760135     1.35200
V612        V  0.53189272  0.26099119  0.74709062     1.35200
C613        C  0.52790506  0.23620457  0.84397151     0.78100
C614        C  0.53317167  0.23636147  0.65180219     0.78100
C615        C  0.59242282  0.23037501  0.75163776     0.78000
C616        C  0.46577229  0.24356271  0.73856792     0.78000
O617        O  0.08251546  0.02824510  0.99118653    -0.71100
O618        O  0.99004390  0.04861412  0.48825762    -0.71400
O619        O  0.03422633  0.03815814  0.56185015    -0.71200
O620        O  0.03666714  0.03819859  0.92025334    -0.71200
O621        O  0.03379898  0.48816009  0.92260308    -0.71200
O622        O  0.02658537  0.48903536  0.56377847    -0.71200
O623        O  0.98467705  0.49861484  0.98603243    -0.71200
O624        O  0.07642608  0.47811778  0.49780099    -0.71300
V625        V  0.03577855  0.03743119  0.49073993     1.35200
V626        V  0.03061771  0.48947298  0.49291772     1.35200
C627        C  0.09238817  0.00018747  0.49331172     0.78100
C628        C  0.96914768  0.02695538  0.48158612     0.78100
C629        C  0.02672355  0.01355901  0.58762008     0.78000
C630        C  0.03204534  0.01318680  0.89545448     0.78000
O631        O  0.97614245  0.03203423  0.74675101    -0.71100
O632        O  0.06979765  0.04529054  0.73991387    -0.71400
O633        O  0.02254055  0.03854522  0.67143401    -0.71200
O634        O  0.02510167  0.03839393  0.81284823    -0.71200
O635        O  0.03997863  0.48857763  0.81446699    -0.71200
O636        O  0.03228660  0.48816728  0.67365491    -0.71200
O637        O  0.08262414  0.49431895  0.73731392    -0.71200
O638        O  0.98904043  0.48215573  0.75323328    -0.71300
V639        V  0.02333063  0.03752930  0.74249464     1.35200
V640        V  0.03578455  0.48929155  0.74439465     1.35200
C641        C  0.96430015  0.00464255  0.75423172     0.78100
C642        C  0.08946580  0.02213512  0.73645832     0.78100
C643        C  0.02527339  0.01334881  0.64606232     0.78000
C644        C  0.03074572  0.01334826  0.83806380     0.78000
C645        C  0.36069343  0.21882741  0.95649801     0.30600
C646        C  0.35718281  0.24905295  0.53787688     0.30600
C647        C  0.39013172  0.21379459  0.98937652    -0.05600
C648        C  0.35338670  0.25502273  0.95413456    -0.06300
C649        C  0.33192251  0.20722930  0.98732617    -0.06200
C650        C  0.38901729  0.23027753  0.53026696    -0.05600
C651        C  0.35449602  0.27009836  0.49542497    -0.06300
C652        C  0.32981837  0.22256829  0.53080939    -0.06200
C653        C  0.41995981  0.22762748  0.54980170    -0.31600
N654        N  0.43967581  0.21043566  0.02090663     0.14900
C655        C  0.42021706  0.19847248  0.98755967    -0.31600
H656        H  0.42890864  0.18299493  0.96064749     0.16800
C657        C  0.34134499  0.30007041  0.49046720    -0.30600
N658        N  0.32809929  0.30272540  0.94814308     0.13600
C659        C  0.33311863  0.27468625  0.92683948    -0.30600
C660        C  0.31789039  0.19905428  0.56123080    -0.30900
N661        N  0.31153897  0.17217181  0.03804983     0.14100
H662        H  0.31817804  0.19976745  0.59825255     0.16700
C663        C  0.32105067  0.17662408  0.99363841    -0.30900
H664        H  0.32377095  0.15740235  0.96944128     0.16700
H665        H  0.32004395  0.26797081  0.89648684     0.16700
H666        H  0.42893320  0.24075853  0.57905481     0.16800
H667        H  0.33784066  0.31749965  0.51737563     0.16700
C668        C  0.34538919  0.28419571  0.70034004     0.30600
C669        C  0.34380855  0.25403205  0.78305449     0.30600
C670        C  0.37936268  0.26831126  0.71447378    -0.05600
C671        C  0.33733530  0.30478480  0.74140685    -0.06300
C672        C  0.31947426  0.25613663  0.70577915    -0.06200
C673        C  0.37700512  0.25103055  0.75516049    -0.05600
C674        C  0.33583598  0.28986267  0.78398163    -0.06300
C675        C  0.32010269  0.24051671  0.74876505    -0.06200
C676        C  0.40731745  0.23619043  0.76283327    -0.31600
N677        N  0.43009024  0.24747844  0.73233577     0.14900
C678        C  0.41347103  0.26697730  0.70203057    -0.31600
H679        H  0.42570041  0.27988480  0.67416059     0.16800
C680        C  0.32011900  0.31117016  0.81364086    -0.30600
N681        N  0.31472979  0.33885095  0.79027151     0.13600
C682        C  0.32447828  0.33470070  0.74571671    -0.30600
C683        C  0.31238156  0.20935856  0.74178769    -0.30900
N684        N  0.30342434  0.20556418  0.69766138     0.14100
H685        H  0.31607146  0.18994626  0.76583065     0.16700
C686        C  0.30721011  0.23364748  0.67534686    -0.30900
H687        H  0.30068975  0.23725987  0.63991525     0.16700
H688        H  0.32006460  0.35144716  0.71769668     0.16700
H689        H  0.41314670  0.21974846  0.79058186     0.16800
H690        H  0.31082664  0.30638904  0.84802674     0.16700
C691        C  0.22161722  0.50012891  0.95006555     0.30600
C692        C  0.21892533  0.47019085  0.53346751     0.30600
C693        C  0.23898867  0.46711884  0.95193579    -0.05600
C694        C  0.23072471  0.01953403  0.98809039    -0.06300
C695        C  0.18590676  0.49210410  0.96827437    -0.06200
C696        C  0.23656123  0.45231107  0.49500113    -0.05600
C697        C  0.23088500  0.00483405  0.53047309    -0.06300
C698        C  0.18449664  0.47753722  0.51211137    -0.06200
C699        C  0.25090837  0.42297179  0.49244794    -0.31600
N700        N  0.26323297  0.41919563  0.94905345     0.14900
C701        C  0.25677271  0.44600056  0.92406362    -0.31600
H702        H  0.26547251  0.44971238  0.88912323     0.16800
C703        C  0.24615413  0.02634704  0.55955573    -0.30600
N704        N  0.25262529  0.05376295  0.03583711     0.13600
C705        C  0.24381417  0.04939900  0.99165070    -0.30600
C706        C  0.15145938  0.47887934  0.52686423    -0.30900
N707        N  0.12730678  0.99238977  0.99091234     0.14100
H708        H  0.13618877  0.97470681  0.55951601     0.16700
C709        C  0.15342500  0.49944428  0.95625243    -0.30900
H710        H  0.13925781  0.01121743  0.92302543     0.16700
H711        H  0.24662739  0.06694439  0.96414632     0.16700
H712        H  0.25240705  0.40546995  0.52016123     0.16800
H713        H  0.25258809  0.02235649  0.59472018     0.16700
C714        C  0.21607383  0.50504768  0.69903324     0.30600
C715        C  0.21594421  0.53463860  0.78126139     0.30600
C716        C  0.22364048  0.48445329  0.74113390    -0.05600
C717        C  0.23456148  0.03484854  0.70008786    -0.06300
C718        C  0.18229202  0.52001623  0.71288214    -0.06200
C719        C  0.22361935  0.49882456  0.78308308    -0.05600
C720        C  0.23507144  0.04877768  0.74347052    -0.06300
C721        C  0.18210083  0.53543426  0.75599383    -0.06200
C722        C  0.23066411  0.47505372  0.81520027    -0.31600
N723        N  0.23602520  0.44726239  0.79298183     0.14900
C724        C  0.23116540  0.45288058  0.74749500    -0.31600
H725        H  0.23522038  0.43554620  0.72058640     0.16800
C726        C  0.24606024  0.07939478  0.73832191    -0.30600
N727        N  0.25127107  0.08551462  0.69308526     0.13600
C728        C  0.24248648  0.05953573  0.66918778    -0.30600
C729        C  0.14907856  0.53743294  0.76951288    -0.30900
N730        N  0.12455629  0.02716294  0.73331014     0.14100
H731        H  0.13958050  0.54280978  0.80362043     0.16700
C732        C  0.14964524  0.51597739  0.70007331    -0.30900
H733        H  0.14047105  0.50456192  0.66934490     0.16700
H734        H  0.23707948  0.06075791  0.63307264     0.16700
H735        H  0.23107449  0.47753505  0.85178244     0.16800
H736        H  0.24679932  0.09713083  0.76516238     0.16700
C737        C  0.19328409  0.04434400  0.89824812    -0.05100
C738        C  0.22510175  0.52156034  0.90870806     0.00800
C739        C  0.25614935  0.52804705  0.88537312    -0.07800
C740        C  0.25417638  0.54483708  0.84364788    -0.05200
C741        C  0.22253904  0.55142338  0.82569032     0.00800
C742        C  0.19170355  0.05975968  0.85561397    -0.07700
C743        C  0.16967435  0.08847429  0.84973599     0.62700
H744        H  0.17553192  0.05069885  0.92507503     0.13400
H745        H  0.27597604  0.54551819  0.82099149     0.13400
C746        C  0.29110093  0.51774383  0.89929133     0.62900
F747        F  0.13692940  0.08106053  0.86065886    -0.22300
F748        F  0.17152644  0.10038588  0.80474659    -0.19600
F749        F  0.18007292  0.11172571  0.87969140    -0.19300
F750        F  0.30343257  0.49673209  0.86683948    -0.19300
F751        F  0.29324870  0.50395759  0.94273192    -0.19600
F752        F  0.31158853  0.54405745  0.89909954    -0.22300
C753        C  0.24666201  0.95716284  0.59909952    -0.05100
C754        C  0.22140155  0.45190958  0.57816568     0.00800
C755        C  0.19329264  0.44743500  0.60612915    -0.07800
C756        C  0.19209473  0.46486158  0.64664973    -0.05200
C757        C  0.21986077  0.48341871  0.65867884     0.00800
C758        C  0.24672277  0.97349693  0.64093657    -0.07700
C759        C  0.28112186  0.97881987  0.66196232     0.62700
H760        H  0.26984218  0.95432925  0.57978097     0.13400
H761        H  0.17123596  0.46169422  0.67026499     0.13400
C762        C  0.17082307  0.41926775  0.59974354     0.62900
F763        F  0.29774184  0.95011409  0.66407585    -0.22300
F764        F  0.28078825  0.99064428  0.70632071    -0.19600
F765        F  0.29954095  0.99914988  0.63378877    -0.19300
F766        F  0.17978015  0.39570423  0.63097582    -0.19300
F767        F  0.17393896  0.40758627  0.55513097    -0.19600
F768        F  0.13787151  0.42727437  0.60808815    -0.22300
C769        C  0.25621058  0.17264535  0.67899328    -0.05100
C770        C  0.29081367  0.17639061  0.68024960     0.00800
C771        C  0.31188170  0.14972397  0.67500573    -0.07800
C772        C  0.29721645  0.11964622  0.67140553    -0.05200
C773        C  0.26263317  0.11557035  0.67568080     0.00800
C774        C  0.24164820  0.14251955  0.67748218    -0.07700
C775        C  0.20417783  0.14038085  0.68342425     0.62700
H776        H  0.24050098  0.19326758  0.68393079     0.13400
H777        H  0.31275412  0.09865985  0.67105525     0.13400
C778        C  0.34956808  0.15266413  0.67775888     0.62900
F779        F  0.18896730  0.16172810  0.65358979    -0.22300
F780        F  0.19557357  0.14792105  0.72864881    -0.19600
F781        F  0.19213809  0.11056427  0.67392874    -0.19300
F782        F  0.35877578  0.15960637  0.72259784    -0.19300
F783        F  0.36089210  0.17643676  0.64824318    -0.19600
F784        F  0.36536447  0.12482625  0.66538823    -0.22300
C785        C  0.26190623  0.36349147  0.81421603    -0.05100
C786        C  0.29631778  0.36618605  0.80556290     0.00800
C787        C  0.31108974  0.39657840  0.80385498    -0.07800
C788        C  0.29037598  0.42342337  0.80523930    -0.05200
C789        C  0.25563257  0.42070777  0.80851706     0.00800
C790        C  0.24121666  0.39055942  0.81577400    -0.07700
C791        C  0.20402832  0.38742702  0.82366960     0.62700
H792        H  0.25114282  0.34003890  0.81631026     0.13400
H793        H  0.30086184  0.44678919  0.79982405     0.13400
C794        C  0.34856341  0.40053124  0.79908246     0.62900
F795        F  0.19480832  0.35628568  0.83191789    -0.22300
F796        F  0.18715928  0.39848073  0.78509382    -0.19600
F797        F  0.19464877  0.40505713  0.86188477    -0.19300
F798        F  0.35937923  0.39123554  0.75559059    -0.19300
F799        F  0.36426824  0.38227992  0.83252557    -0.19600
F800        F  0.35806308  0.43170573  0.80484128    -0.22300
C801        C  0.26393255  0.13992478  0.55922625    -0.05100
C802        C  0.29842209  0.14258503  0.05538587     0.00800
C803        C  0.31796106  0.11457960  0.05405801    -0.07800
C804        C  0.30189521  0.08502409  0.05291262    -0.05200
C805        C  0.26711391  0.08273651  0.05175771     0.00800
C806        C  0.24777543  0.11047031  0.55586853    -0.07700
C807        C  0.21010569  0.10945613  0.55146227     0.62700
H808        H  0.24946602  0.16158827  0.55908122     0.13400
H809        H  0.31658515  0.06367497  0.04864358     0.13400
C810        C  0.35556087  0.11504328  0.04881971     0.62900
F811        F  0.19561324  0.13816279  0.56265299    -0.22300
F812        F  0.19678994  0.08652034  0.58078527    -0.19600
F813        F  0.20139207  0.10248275  0.00643160    -0.19300
F814        F  0.36927461  0.14438627  0.55536918    -0.19300
F815        F  0.36422103  0.10685862  0.00386036    -0.19600
F816        F  0.36946333  0.09327221  0.07924437    -0.22300
C817        C  0.32929746  0.35852684  0.92814284    -0.05100
C818        C  0.31059195  0.33065179  0.93303920     0.00800
C819        C  0.27573331  0.33259505  0.43536029    -0.07800
C820        C  0.26042295  0.36263667  0.43471730    -0.05200
C821        C  0.27920662  0.39053025  0.93407183     0.00800
C822        C  0.31424714  0.38858141  0.92994062    -0.07700
C823        C  0.33565131  0.41802404  0.93189962     0.62700
H824        H  0.35619817  0.35638722  0.92754169     0.13400
H825        H  0.23363407  0.36471782  0.43860719     0.13400
C826        C  0.25479342  0.30303555  0.44194774     0.62900
F827        F  0.36932673  0.41086391  0.92983266    -0.22300
F828        F  0.32905687  0.43414985  0.47323435    -0.19600
F829        F  0.32843969  0.43780810  0.89488179    -0.19300
F830        F  0.22115102  0.31006441  0.44578962    -0.19300
F831        F  0.26352804  0.28701469  0.98176560    -0.19600
F832        F  0.25925009  0.28353256  0.40421013    -0.22300
C833        C  0.37593979  0.24700486  0.85158860    -0.05100
C834        C  0.34629714  0.23929760  0.82996538     0.00800
C835        C  0.32520963  0.21571009  0.84991076    -0.07800
C836        C  0.33848478  0.19689295  0.88546667    -0.03600
C837        C  0.36753001  0.20673134  0.90811853     0.00800
C838        C  0.39030758  0.22602615  0.88201957    -0.07700
C839        C  0.42760290  0.23005329  0.88970512     0.62700
H840        H  0.39001350  0.26748074  0.83949962     0.13400
H841        H  0.32191753  0.18017522  0.90212889     0.13400
C842        C  0.28734476  0.21532923  0.84538876     0.62900
F843        F  0.44322022  0.20093284  0.88985564    -0.22300
F844        F  0.43350423  0.24650909  0.92982099    -0.19600
F845        F  0.44260631  0.24738082  0.85404296    -0.19300
F846        F  0.27685758  0.18700771  0.82697688    -0.19300
F847        F  0.27545870  0.24026783  0.81883613    -0.19600
F848        F  0.27289502  0.21802143  0.88911656    -0.22300
C849        C  0.32140595  0.27970742  0.59013986    -0.05100
C850        C  0.35431269  0.27082817  0.57813589     0.00800
C851        C  0.37980762  0.29257897  0.59214996    -0.07800
C852        C  0.37361054  0.30882201  0.63331963    -0.05200
C853        C  0.34350568  0.30383577  0.65644915     0.00800
C854        C  0.31588771  0.29904002  0.62817164    -0.07700
C855        C  0.28183279  0.31246740  0.63987884     0.62700
H856        H  0.30041757  0.27134961  0.57040383     0.13400
H857        H  0.39304769  0.32231249  0.64975608     0.13400
C858        C  0.41065442  0.30349293  0.56486196     0.62900
F859        F  0.28403041  0.34505852  0.64207449    -0.22300
F860        F  0.27028071  0.30093885  0.68220921    -0.19600
F861        F  0.25882419  0.30502875  0.60624618    -0.19300
F862        F  0.40830943  0.33585215  0.55753867    -0.19300
F863        F  0.41473812  0.29008188  0.52181882    -0.19600
F864        F  0.43894940  0.29756826  0.59054976    -0.22300
C865        C  0.88028011  0.46082311  0.90774813    -0.05100
C866        C  0.85134244  0.47817425  0.92052381     0.00800
C867        C  0.81370792  0.96524483  0.90424967    -0.07800
C868        C  0.81452086  0.94448909  0.86646132    -0.05200
C869        C  0.85104161  0.44309056  0.84299367     0.00800
C870        C  0.87962757  0.44136296  0.86938425    -0.07700
C871        C  0.90504417  0.41555008  0.86153586     0.62700
H872        H  0.90176772  0.45999889  0.92995763     0.13400
H873        H  0.79159109  0.93840859  0.84921023     0.13400
C874        C  0.77956781  0.97356230  0.92535247     0.62900
F875        F  0.93494808  0.42266382  0.88250485    -0.22300
F876        F  0.91081603  0.41140848  0.81448444    -0.19600
F877        F  0.89296218  0.38753305  0.88038432    -0.19300
F878        F  0.76900915  0.00291402  0.91001439    -0.19300
F879        F  0.77990558  0.97342083  0.97324071    -0.19600
F880        F  0.75574994  0.95177848  0.91249692    -0.22300
C881        C  0.84837002  0.05338402  0.61571290    -0.05100
C882        C  0.87496396  0.53742867  0.58940216     0.00800
C883        C  0.89574003  0.51463765  0.61208837    -0.07800
C884        C  0.88020318  0.49860788  0.64787867    -0.05200
C885        C  0.85465895  0.51311676  0.67371313     0.00800
C886        C  0.84364437  0.04382823  0.66171841    -0.07700
C887        C  0.84387409  0.07070390  0.69611126     0.62700
H888        H  0.83962551  0.07622416  0.60403202     0.13400
H889        H  0.89040801  0.47600442  0.65884494     0.13400
C890        C  0.92963605  0.50225842  0.59559882     0.62900
F891        F  0.86843843  0.09224473  0.68345072    -0.22300
F892        F  0.85142205  0.06030818  0.73994550    -0.19600
F893        F  0.81370566  0.08660845  0.69616401    -0.19300
F894        F  0.92743979  0.48738022  0.55332618    -0.19300
F895        F  0.94271617  0.48034270  0.62667273    -0.19600
F896        F  0.95225808  0.52676784  0.59315317    -0.22300
C897        C  0.78729693  0.12124786  0.82895414    -0.05100
C898        C  0.75355756  0.12681610  0.82052764     0.00800
C899        C  0.73196261  0.10080874  0.81505192    -0.07800
C900        C  0.74562236  0.07028594  0.81187691    -0.05200
C901        C  0.78005146  0.06496376  0.81463002     0.00800
C902        C  0.80132323  0.09081645  0.82548854    -0.07700
C903        C  0.83890456  0.08902686  0.83067480     0.62700
H904        H  0.80351179  0.14148700  0.83319143     0.13400
H905        H  0.72949484  0.05055058  0.80405175     0.13400
C906        C  0.69475211  0.10468001  0.80890493     0.62900
F907        F  0.84744648  0.10077234  0.87331756    -0.22300
F908        F  0.85399455  0.10776591  0.79675255    -0.19600
F909        F  0.85170964  0.05884389  0.82796552    -0.19300
F910        F  0.68649832  0.09721647  0.76381495    -0.19300
F911        F  0.68402290  0.13514982  0.81797168    -0.19600
F912        F  0.67810381  0.08435753  0.83920589    -0.22300
C913        C  0.75420616  0.35213035  0.69591804    -0.05100
C914        C  0.77218058  0.32356611  0.69474769     0.00800
C915        C  0.80741169  0.32457519  0.69180479    -0.07800
C916        C  0.82343260  0.35425758  0.69147904    -0.05200
C917        C  0.80553716  0.38263269  0.69636690     0.00800
C918        C  0.77030352  0.38167682  0.69841413    -0.07700
C919        C  0.75007162  0.41133167  0.70781190     0.62700
H920        H  0.72734203  0.35071770  0.69927759     0.13400
H921        H  0.85037903  0.35558073  0.69125310     0.13400
C922        C  0.82799822  0.29444863  0.69303114     0.62900
F923        F  0.71634904  0.40486371  0.71215334    -0.22300
F924        F  0.75438574  0.43282410  0.67171277    -0.19600
F925        F  0.76031676  0.42486404  0.74878549    -0.19300
F926        F  0.82190348  0.27692725  0.65381109    -0.19300
F927        F  0.81977175  0.27670325  0.73223091    -0.19600
F928        F  0.86184001  0.30072954  0.69424589    -0.22300
C929        C  0.75985350  0.11214649  0.44593884    -0.05100
C930        C  0.79432346  0.10877759  0.95315802     0.00800
C931        C  0.81442585  0.13638789  0.95513814    -0.07800
C932        C  0.79909614  0.16634072  0.95172995    -0.05200
C933        C  0.76444864  0.16967822  0.94865779     0.00800
C934        C  0.74428137  0.14211072  0.44530247    -0.07700
C935        C  0.70652050  0.14403065  0.44580255     0.62700
H936        H  0.74492743  0.09083190  0.44567310     0.13400
H937        H  0.81402579  0.18746933  0.95569273     0.13400
C938        C  0.85175514  0.13581934  0.96306708     0.62900
F939        F  0.69240905  0.11542783  0.93446476    -0.22300
F940        F  0.69613047  0.16635997  0.91362343    -0.19600
F941        F  0.69520058  0.15231587  0.48956103    -0.19300
F942        F  0.86522386  0.10570547  0.96242190    -0.19300
F943        F  0.85842811  0.14965254  0.50496441    -0.19600
F944        F  0.86718573  0.15345039  0.42775650    -0.22300
C945        C  0.80429385  0.36168408  0.57277783    -0.05100
C946        C  0.77001913  0.36517915  0.06540021     0.00800
C947        C  0.75566713  0.39580186  0.06579420    -0.07800
C948        C  0.77679096  0.42233236  0.06779925    -0.05200
C949        C  0.81149722  0.41880416  0.06915519     0.00800
C950        C  0.82542959  0.38817884  0.57443530    -0.07700
C951        C  0.86270668  0.38372487  0.57986672     0.62700
H952        H  0.81463149  0.33799389  0.57331295     0.13400
H953        H  0.76665564  0.44597711  0.06395861     0.13400
C954        C  0.71835573  0.40032205  0.06206335     0.62900
F955        F  0.87097741  0.35225849  0.58739918    -0.22300
F956        F  0.87346615  0.40088260  0.61743057    -0.19600
F957        F  0.87938522  0.39409406  0.04006218    -0.19300
F958        F  0.70218385  0.38040674  0.59364976    -0.19300
F959        F  0.70813517  0.39323171  0.01771201    -0.19600
F960        F  0.70907497  0.43120557  0.07139360    -0.22300
C961        C  0.68860778  0.29283101  0.88799564    -0.05100
C962        C  0.71727428  0.29895179  0.91312658     0.00800
C963        C  0.74756012  0.29484707  0.88789535    -0.07800
C964        C  0.74686510  0.27418036  0.85002181    -0.05200
C965        C  0.71699904  0.25798403  0.83922401     0.00800
C966        C  0.68820893  0.26399724  0.86551350    -0.07700
C967        C  0.66495755  0.23744666  0.88296140     0.62700
H968        H  0.66609577  0.30550096  0.89484337     0.13400
H969        H  0.76941830  0.26938138  0.83024049     0.13400
C970        C  0.78010538  0.30971095  0.90236297     0.62900
F971        F  0.67316852  0.22833658  0.92738095    -0.22300
F972        F  0.66744789  0.21015364  0.85731289    -0.19600
F973        F  0.63216831  0.24759713  0.88334788    -0.19300
F974        F  0.79082967  0.29653479  0.94376833    -0.19300
F975        F  0.77582571  0.34193594  0.90731085    -0.19600
F976        F  0.80493785  0.30518932  0.86926344    -0.22300
C977        C  0.74701532  0.22196413  0.60189894    -0.05100
C978        C  0.71759939  0.23960617  0.59193879     0.00800
C979        C  0.68864647  0.23330907  0.61794916    -0.07800
C980        C  0.68837132  0.20384814  0.63919217    -0.05200
C981        C  0.71695624  0.19633318  0.66420602     0.00800
C982        C  0.74704196  0.19973695  0.63855472    -0.07700
C983        C  0.77846083  0.18173479  0.65072971     0.62700
H984        H  0.76966134  0.22641658  0.58199958     0.13400
H985        H  0.66523300  0.19213975  0.64569665     0.13400
C986        C  0.66324745  0.25859987  0.63230320     0.62900
F987        F  0.77127099  0.14989155  0.65577420    -0.22300
F988        F  0.79166032  0.19289041  0.69149663    -0.19600
F989        F  0.80249784  0.18493084  0.61605268    -0.19300
F990        F  0.63105833  0.24747244  0.62781458    -0.19300
F991        F  0.66678396  0.28655278  0.60735608    -0.19600
F992        F  0.66769656  0.26644830  0.67808801    -0.22300
C993        C  0.71223624  0.78177555  0.46039950     0.30600
C994        C  0.71192463  0.75299956  0.04477771     0.30600
C995        C  0.67663588  0.77610975  0.48317233    -0.05600
C996        C  0.72971260  0.74801350  0.46353981    -0.06300
C997        C  0.72869099  0.80041795  0.49848051    -0.06200
C998        C  0.67741895  0.75823067  0.02376647    -0.05600
C999        C  0.72782713  0.73387107  0.00659891    -0.06300
C1000       C  0.72897237  0.78587406  0.04189053    -0.06200
C1001       C  0.64678377  0.74357135  0.02849197    -0.31600
N1002       N  0.62544821  0.75710721  0.99852693     0.14900
C1003       C  0.64272926  0.77805408  0.47179240    -0.31600
H1004       H  0.63059224  0.79172301  0.44524430     0.16800
C1005       C  0.73708429  0.70259690  0.00338907    -0.30600
N1006       N  0.74796468  0.69710467  0.46029140     0.13600
C1007       C  0.74499188  0.72469926  0.43569767    -0.30600
C1008       C  0.74187178  0.80795064  0.07208706    -0.30900
N1009       N  0.74863565  0.83512812  0.54793771     0.14100
H1010       H  0.74515458  0.80513169  0.10881906     0.16700
C1011       C  0.74023509  0.83075698  0.50308084    -0.30900
H1012       H  0.74210510  0.84864980  0.47607690     0.16700
H1013       H  0.75407586  0.72707236  0.40083641     0.16700
H1014       H  0.64046186  0.72379494  0.05101778     0.16800
H1015       H  0.73602640  0.68458837  0.03038123     0.16700
C1016       C  0.71161862  0.70864280  0.21072713     0.30600
C1017       C  0.71128688  0.73824716  0.29332152     0.30600
C1018       C  0.67642999  0.71320137  0.23437054    -0.05600
C1019       C  0.72968966  0.69113399  0.24878020    -0.06300
C1020       C  0.72828430  0.74272802  0.21149096    -0.06200
C1021       C  0.67666857  0.73174113  0.27334896    -0.05600
C1022       C  0.73001003  0.70601648  0.29165926    -0.06300
C1023       C  0.72620792  0.75740389  0.25375891    -0.06200
C1024       C  0.64431487  0.74224690  0.28066068    -0.31600
N1025       N  0.62378467  0.72541585  0.25377383     0.14900
C1026       C  0.64279344  0.70661300  0.22661836    -0.31600
H1027       H  0.63192595  0.68986278  0.20338943     0.16800
C1028       C  0.73789555  0.68258463  0.32392304    -0.30600
N1029       N  0.74166986  0.65468282  0.30152752     0.13600
C1030       C  0.73582976  0.65961691  0.25597386    -0.30600
C1031       C  0.73854492  0.78766079  0.24977479    -0.30900
N1032       N  0.75173457  0.79159957  0.20716527     0.14100
H1033       H  0.73860015  0.80574431  0.27606393     0.16700
C1034       C  0.74630833  0.76448162  0.18350148    -0.30900
H1035       H  0.75622889  0.76129798  0.14945386     0.16700
H1036       H  0.73429540  0.64111696  0.23047008     0.16700
H1037       H  0.63608938  0.76097016  0.30328013     0.16800
H1038       H  0.73871201  0.68501736  0.36090988     0.16700
C1039       C  0.85714312  0.02732179  0.04026369     0.30600
C1040       C  0.84909746  0.00013923  0.45776027     0.30600
C1041       C  0.84913391  0.99161752  0.04082404    -0.05600
C1042       C  0.83351634  0.54190003  0.01568255    -0.06300
C1043       C  0.88488223  0.03346792  0.00479576    -0.06200
C1044       C  0.84857247  0.97766553  0.49917246    -0.05600
C1045       C  0.82937617  0.52768381  0.47146430    -0.06300
C1046       C  0.88243672  0.01790935  0.46330780    -0.06200
C1047       C  0.83740861  0.94695995  0.50544726    -0.31600
N1048       N  0.82723408  0.94310781  0.54981744     0.14900
C1049       C  0.83144782  0.97139000  0.07058163    -0.31600
H1050       H  0.81972926  0.97826049  0.10271822     0.16800
C1051       C  0.81625214  0.55191505  0.44362033    -0.30600
N1052       N  0.81188276  0.57865943  0.46878580     0.13600
C1053       C  0.82268885  0.57281753  0.01213480    -0.30600
C1054       C  0.92079754  0.51760475  0.44710721    -0.30900
N1055       N  0.94101903  0.53443452  0.47525822     0.14100
H1056       H  0.92987470  0.50389169  0.41809639     0.16700
C1057       C  0.92214427  0.54701716  0.00926092    -0.30900
H1058       H  0.93155357  0.56062753  0.03775842     0.16700
H1059       H  0.82546749  0.59111629  0.03759035     0.16700
H1060       H  0.83251379  0.92999500  0.47848216     0.16800
H1061       H  0.81278520  0.55124922  0.40682219     0.16700
C1062       C  0.84332066  0.99358858  0.21645448     0.30600
C1063       C  0.84662743  0.96216366  0.29806973     0.30600
C1064       C  0.87535693  0.99858196  0.24507000    -0.05600
C1065       C  0.82016707  0.50299077  0.25133030    -0.06300
C1066       C  0.83974127  0.95686750  0.21373204    -0.06200
C1067       C  0.87862769  0.98114429  0.28540879    -0.05600
C1068       C  0.82333512  0.48879286  0.29494512    -0.06300
C1069       C  0.84225064  0.94133227  0.25606588    -0.06200
C1070       C  0.91847730  0.48276540  0.29601341    -0.31600
N1071       N  0.93442147  0.50188484  0.26437330     0.14900
C1072       C  0.91126281  0.51427266  0.23634039    -0.31600
H1073       H  0.91717213  0.52884451  0.20618116     0.16800
C1074       C  0.80922337  0.51093352  0.32483929    -0.30600
N1075       N  0.79450558  0.53449909  0.30026939     0.13600
C1076       C  0.79928730  0.52848178  0.25493315    -0.30600
C1077       C  0.83045066  0.91102884  0.25172124    -0.30900
N1078       N  0.81909797  0.90751636  0.20820556     0.14100
H1079       H  0.82692074  0.89386530  0.27960163     0.16700
C1080       C  0.82322055  0.93560567  0.18525791    -0.30900
H1081       H  0.81244835  0.94070180  0.15215273     0.16700
H1082       H  0.79101725  0.54355292  0.22699872     0.16700
H1083       H  0.93138248  0.46851728  0.32140556     0.16800
H1084       H  0.81282978  0.51210950  0.36129613     0.16700
O1085       O  0.56874641  0.77067217  0.49209751    -0.71100
O1086       O  0.47754266  0.74824912  0.00708521    -0.71400
O1087       O  0.52644154  0.76032492  0.06836608    -0.71200
O1088       O  0.51891592  0.75922343  0.42789051    -0.71200
O1089       O  0.53399854  0.71048607  0.42738516    -0.71200
O1090       O  0.53603328  0.71026540  0.06927279    -0.71200
O1091       O  0.49043024  0.69842649  0.50246299    -0.71200
O1092       O  0.58163995  0.72072234  0.99715589    -0.71300
V1093       V  0.52314368  0.75858039  0.99842368     1.35200
V1094       V  0.53547269  0.71097477  0.99862302     1.35200
C1095       C  0.59085708  0.74925130  0.99496482     0.78100
C1096       C  0.46895071  0.71947830  0.01040960     0.78100
C1097       C  0.53088728  0.73535978  0.09404633     0.78000
C1098       C  0.52548070  0.73495275  0.40203151     0.78000
O1099       O  0.52172341  0.71035324  0.31821755    -0.71100
O1100       O  0.52408596  0.71060380  0.17698620    -0.71400
O1101       O  0.56939874  0.70519305  0.24818776    -0.71200
O1102       O  0.47452002  0.71640098  0.24471771    -0.71200
O1103       O  0.48141123  0.76717717  0.23933664    -0.71200
O1104       O  0.57516639  0.75612199  0.25267704    -0.71200
O1105       O  0.53262716  0.76079713  0.17638911    -0.71200
O1106       O  0.52460296  0.76102738  0.31779735    -0.71300
V1107       V  0.52231065  0.71164587  0.24725569     1.35200
V1108       V  0.52824310  0.76026532  0.24677667     1.35200
C1109       C  0.52373696  0.73547855  0.34365530     0.78100
C1110       C  0.52935490  0.73559234  0.15148533     0.78100
C1111       C  0.58828893  0.72896424  0.25155533     0.78000
C1112       C  0.46198156  0.74371819  0.23782810     0.78000
O1113       O  0.08844510  0.52811871  0.49272710    -0.71100
O1114       O  0.99621881  0.54867681  0.98995050    -0.71400
O1115       O  0.04030487  0.53799647  0.06344800    -0.71200
O1116       O  0.04253370  0.53830059  0.42184696    -0.71200
O1117       O  0.02805872  0.98823262  0.42104306    -0.71200
O1118       O  0.02092552  0.98885563  0.06217457    -0.71200
O1119       O  0.97878203  0.99849610  0.48443330    -0.71200
O1120       O  0.07077411  0.97818044  0.99602814    -0.71300
V1121       V  0.04186446  0.53724183  0.99237006     1.35200
V1122       V  0.02484335  0.98936432  0.99130051     1.35200
C1123       C  0.09814130  0.49955332  0.99490713     0.78100
C1124       C  0.97522846  0.52711264  0.98322183     0.78100
C1125       C  0.03250200  0.51349244  0.08921718     0.78000
C1126       C  0.03779017  0.51331711  0.39703812     0.78000
O1127       O  0.98182715  0.53283842  0.24793315    -0.71100
O1128       O  0.07546005  0.54506766  0.24157894    -0.71400
O1129       O  0.02842922  0.53868170  0.17290298    -0.71200
O1130       O  0.03073493  0.53860447  0.31439776    -0.71200
O1131       O  0.03465853  0.98849939  0.31300508    -0.71200
O1132       O  0.02717324  0.98793650  0.17211636    -0.71200
O1133       O  0.07747722  0.99463451  0.23599069    -0.71200
O1134       O  0.98393436  0.98132799  0.25169825    -0.71300
V1135       V  0.02902119  0.53776071  0.24397786     1.35200
V1136       V  0.03061116  0.98909229  0.24291375     1.35200
C1137       C  0.96962767  0.50562920  0.25552440     0.78100
C1138       C  0.09481579  0.52172705  0.23798870     0.78100
C1139       C  0.03085071  0.51340556  0.14763092     0.78000
C1140       C  0.03628169  0.51352448  0.33962894     0.78000
C1141       C  0.35662460  0.72080571  0.45607650     0.30600
C1142       C  0.35327580  0.75097581  0.03758518     0.30600
C1143       C  0.38608847  0.71570483  0.48884531    -0.05600
C1144       C  0.34953550  0.75705482  0.45369473    -0.06300
C1145       C  0.32793632  0.70915370  0.48700667    -0.06200
C1146       C  0.38511077  0.73230724  0.02970124    -0.05600
C1147       C  0.35028796  0.77201578  0.99519625    -0.06300
C1148       C  0.32602502  0.72431949  0.03091302    -0.06200
C1149       C  0.41590824  0.72915187  0.04946316    -0.31600
N1150       N  0.43527986  0.71125877  0.52102793     0.14900
C1151       C  0.41571349  0.69962018  0.48758017    -0.31600
H1152       H  0.42409163  0.68365733  0.46110505     0.16800
C1153       C  0.33759180  0.80217691  0.99015107    -0.30600
N1154       N  0.32518423  0.80522115  0.44742613     0.13600
C1155       C  0.32986310  0.77710767  0.42617519    -0.30600
C1156       C  0.31524406  0.70039967  0.06151685    -0.30900
N1157       N  0.30930797  0.67348217  0.53814364     0.14100
H1158       H  0.31642555  0.70091221  0.09846482     0.16700
C1159       C  0.31785623  0.67829387  0.49345982    -0.30900
H1160       H  0.32084781  0.65920648  0.46905619     0.16700
H1161       H  0.31678977  0.77063881  0.39578380     0.16700
H1162       H  0.42501844  0.74206371  0.07884923     0.16800
H1163       H  0.33407722  0.81958085  0.01709082     0.16700
C1164       C  0.34230415  0.78622180  0.20021791     0.30600
C1165       C  0.34058092  0.75642916  0.28304442     0.30600
C1166       C  0.37615599  0.77014708  0.21427806    -0.05600
C1167       C  0.33442733  0.80704658  0.24115567    -0.06300
C1168       C  0.31631119  0.75822517  0.20573963    -0.06200
C1169       C  0.37367700  0.75306619  0.25510236    -0.05600
C1170       C  0.33285978  0.79226196  0.28382032    -0.06300
C1171       C  0.31674026  0.74282326  0.24896780    -0.06200
C1172       C  0.40358496  0.73748591  0.26239315    -0.31600
N1173       N  0.42641033  0.74816850  0.23155642     0.14900
C1174       C  0.41010212  0.76796867  0.20132166    -0.31600
H1175       H  0.42241842  0.78044702  0.17309264     0.16800
C1176       C  0.31638550  0.81336340  0.31302088    -0.30600
N1177       N  0.31073983  0.84089306  0.28945486     0.13600
C1178       C  0.32104116  0.83681225  0.24511644    -0.30600
C1179       C  0.30978314  0.71143722  0.24215729    -0.30900
N1180       N  0.30203748  0.70709145  0.19770152     0.14100
H1181       H  0.31346782  0.69222206  0.26661835     0.16700
C1182       C  0.30541276  0.73514953  0.17523519    -0.30900
H1183       H  0.29946298  0.73844662  0.13959378     0.16700
H1184       H  0.31656464  0.85342493  0.21695126     0.16700
H1185       H  0.40913118  0.72085504  0.29001246     0.16800
H1186       H  0.30674647  0.80851503  0.34718993     0.16700
C1187       C  0.21604763  0.00154381  0.44847478     0.30600
C1188       C  0.21371899  0.97172534  0.03199622     0.30600
C1189       C  0.23310919  0.96836349  0.45028946    -0.05600
C1190       C  0.23605887  0.51814092  0.48996298    -0.06300
C1191       C  0.18037675  0.99385639  0.46711839    -0.06200
C1192       C  0.23108003  0.95367096  0.99354683    -0.05600
C1193       C  0.23578327  0.50333935  0.03238183    -0.06300
C1194       C  0.17913124  0.97909353  0.01095041    -0.06200
C1195       C  0.24586418  0.92451622  0.99130393    -0.31600
N1196       N  0.25799865  0.92070799  0.44791675     0.14900
C1197       C  0.25109351  0.94726539  0.42262008    -0.31600
H1198       H  0.25992380  0.95096085  0.38775220     0.16800
C1199       C  0.24999659  0.52522264  0.06193938    -0.30600
N1200       N  0.25656777  0.55268649  0.53829063     0.13600
C1201       C  0.24843542  0.54821283  0.49389823    -0.30600
C1202       C  0.14598095  0.97976410  0.02543436    -0.30900
N1203       N  0.13295652  0.49193256  0.49252303     0.14100
H1204       H  0.14171614  0.47359569  0.06090599     0.16700
C1205       C  0.14780606  0.00070435  0.45489944    -0.30900
H1206       H  0.14498442  0.51065226  0.42463883     0.16700
H1207       H  0.25096427  0.56592847  0.46657573     0.16700
H1208       H  0.24782446  0.90724379  0.01926256     0.16800
H1209       H  0.25573542  0.52153034  0.09743261     0.16700
C1210       C  0.21084391  0.00643980  0.19764182     0.30600
C1211       C  0.21055947  0.03601260  0.27977427     0.30600
C1212       C  0.21782748  0.98571277  0.23983283    -0.05600
C1213       C  0.23925108  0.53413198  0.20118343    -0.06300
C1214       C  0.17709102  0.02184960  0.21095612    -0.06200
C1215       C  0.21779463  0.00009233  0.28176367    -0.05600
C1216       C  0.23997804  0.54794568  0.24477252    -0.06300
C1217       C  0.17679669  0.03722363  0.25416094    -0.06200
C1218       C  0.22512016  0.97634570  0.31381583    -0.31600
N1219       N  0.23069779  0.94859215  0.29159092     0.14900
C1220       C  0.22561654  0.95417158  0.24614860    -0.31600
H1221       H  0.22993384  0.93692443  0.21919365     0.16800
C1222       C  0.24965879  0.57894611  0.23958293    -0.30600
N1223       N  0.25363756  0.58550678  0.19429266     0.13600
C1224       C  0.24559551  0.55930482  0.17039016    -0.30600
C1225       C  0.14371275  0.03839087  0.26800839    -0.30900
N1226       N  0.12986826  0.52642326  0.23487757     0.14100
H1227       H  0.13429714  0.04329542  0.30232990     0.16700
C1228       C  0.14440318  0.01720262  0.19849532    -0.30900
H1229       H  0.13535340  0.00557254  0.16787340     0.16700
H1230       H  0.23955467  0.56046909  0.13449162     0.16700
H1231       H  0.22573515  0.97883723  0.35035552     0.16800
H1232       H  0.25017943  0.59657431  0.26659255     0.16700
C1233       C  0.19896055  0.54332453  0.40009800    -0.05100
C1234       C  0.21955931  0.02280723  0.40702854     0.00800
C1235       C  0.25067425  0.02912203  0.38371469    -0.07800
C1236       C  0.24882936  0.04609425  0.34215866    -0.05200
C1237       C  0.21724493  0.05283706  0.32411449     0.00800
C1238       C  0.19718727  0.55857139  0.35733930    -0.07700
C1239       C  0.17530486  0.58741436  0.35159772     0.62700
H1240       H  0.18142026  0.54985012  0.42710705     0.13400
H1241       H  0.27067636  0.04675734  0.31959498     0.13400
C1242       C  0.28557638  0.01836787  0.39732274     0.62900
F1243       F  0.14258533  0.58022267  0.36304140    -0.22300
F1244       F  0.17689371  0.59921240  0.30652993    -0.19600
F1245       F  0.18608038  0.61068279  0.38127083    -0.19300
F1246       F  0.29766511  0.99764511  0.36429248    -0.19300
F1247       F  0.28774087  0.00407784  0.44041452    -0.19600
F1248       F  0.30631486  0.04448094  0.39770310    -0.22300
C1249       C  0.25160029  0.45529901  0.10063991    -0.05100
C1250       C  0.21647273  0.95365922  0.07678077     0.00800
C1251       C  0.18837212  0.94901071  0.10465771    -0.07800
C1252       C  0.18717358  0.96616040  0.14539734    -0.05200
C1253       C  0.21480892  0.98486256  0.15739729     0.00800
C1254       C  0.25173089  0.47205918  0.14212329    -0.07700
C1255       C  0.28621852  0.47759075  0.16258982     0.62700
H1256       H  0.27477058  0.45217577  0.08139778     0.13400
H1257       H  0.16634613  0.96286244  0.16903552     0.13400
C1258       C  0.16595678  0.92088370  0.09782659     0.62900
F1259       F  0.30244114  0.44875548  0.16645328    -0.22300
F1260       F  0.28622839  0.49080433  0.20604971    -0.19600
F1261       F  0.30473508  0.49684147  0.13290466    -0.19300
F1262       F  0.17604568  0.89653333  0.12698086    -0.19300
F1263       F  0.16781886  0.91055553  0.05237071    -0.19600
F1264       F  0.13320788  0.92839294  0.10856382    -0.22300
C1265       C  0.25592225  0.67286993  0.17926245    -0.05100
C1266       C  0.29039895  0.67753320  0.18031565     0.00800
C1267       C  0.31220683  0.65133052  0.17557810    -0.07800
C1268       C  0.29834031  0.62088687  0.17235660    -0.05200
C1269       C  0.26391925  0.61592826  0.17699672     0.00800
C1270       C  0.24218929  0.64236791  0.17898172    -0.07700
C1271       C  0.20478212  0.63966087  0.18542841     0.62700
H1272       H  0.23965021  0.69314652  0.18379955     0.13400
H1273       H  0.31440314  0.60026609  0.17178108     0.13400
C1274       C  0.34985673  0.65521815  0.17744641     0.62900
F1275       F  0.18907802  0.65816353  0.15226759    -0.22300
F1276       F  0.19593293  0.65063225  0.22898277    -0.19600
F1277       F  0.19344318  0.60898035  0.18133653    -0.19300
F1278       F  0.35919113  0.66582028  0.22058804    -0.19300
F1279       F  0.36048586  0.67677649  0.14404256    -0.19600
F1280       F  0.36626900  0.62689511  0.16966524    -0.22300
C1281       C  0.25738360  0.86499887  0.31262194    -0.05100
C1282       C  0.29182375  0.86801207  0.30443286     0.00800
C1283       C  0.30631958  0.89850554  0.30334265    -0.07800
C1284       C  0.28534390  0.92519572  0.30420931    -0.05200
C1285       C  0.25059231  0.92218171  0.30706024     0.00800
C1286       C  0.23645904  0.89191267  0.31429923    -0.07700
C1287       C  0.19934670  0.88854396  0.32264878     0.62700
H1288       H  0.24682679  0.84145669  0.31454243     0.13400
H1289       H  0.29568645  0.94863450  0.29898778     0.13400
C1290       C  0.34382253  0.90264677  0.29995768     0.62900
F1291       F  0.19039919  0.85734788  0.33102396    -0.22300
F1292       F  0.18214143  0.89950977  0.28431760    -0.19600
F1293       F  0.19011525  0.90611603  0.36099575    -0.19300
F1294       F  0.35544077  0.89377298  0.25665582    -0.19300
F1295       F  0.35901013  0.88412704  0.33357256    -0.19600
F1296       F  0.35304225  0.93378688  0.30673035    -0.22300
C1297       C  0.26336613  0.63929197  0.06068117    -0.05100
C1298       C  0.29786518  0.64341951  0.55603802     0.00800
C1299       C  0.31877650  0.61628404  0.55503865    -0.07800
C1300       C  0.30417888  0.58603077  0.55526849    -0.05200
C1301       C  0.26956322  0.58217912  0.55453829     0.00800
C1302       C  0.24859799  0.60914749  0.05813292    -0.07700
C1303       C  0.21105583  0.60658351  0.05310576     0.62700
H1304       H  0.24788307  0.66031315  0.06010772     0.13400
H1305       H  0.31987069  0.56530168  0.55127258     0.13400
C1306       C  0.35626787  0.61812840  0.54893698     0.62900
F1307       F  0.19515626  0.63450295  0.06481274    -0.22300
F1308       F  0.19849772  0.58276698  0.08155106    -0.19600
F1309       F  0.20365640  0.60104532  0.50702431    -0.19300
F1310       F  0.36849558  0.64804231  0.05429450    -0.19300
F1311       F  0.36488412  0.60831456  0.50469047    -0.19600
F1312       F  0.37140105  0.59829398  0.58098287    -0.22300
C1313       C  0.32560858  0.86131678  0.42870733    -0.05100
C1314       C  0.30739535  0.83306890  0.43254937     0.00800
C1315       C  0.27223339  0.83439216  0.93350885    -0.07800
C1316       C  0.25648507  0.86420993  0.93319093    -0.05200
C1317       C  0.27478448  0.89236045  0.43341171     0.00800
C1318       C  0.30989035  0.89109058  0.43002785    -0.07700
C1319       C  0.33056565  0.92100200  0.43188270     0.62700
H1320       H  0.35254472  0.85969310  0.42890716     0.13400
H1321       H  0.22961848  0.86591996  0.93623496     0.13400
C1322       C  0.25155441  0.80450894  0.93766641     0.62900
F1323       F  0.36439791  0.91462172  0.42939433    -0.22300
F1324       F  0.32410698  0.93669712  0.97303697    -0.19600
F1325       F  0.32267760  0.94063442  0.39498376    -0.19300
F1326       F  0.21787898  0.81113831  0.94235934    -0.19300
F1327       F  0.26117450  0.78675501  0.47610297    -0.19600
F1328       F  0.25599770  0.78675979  0.89812059    -0.22300
C1329       C  0.37287259  0.74865894  0.35148164    -0.05100
C1330       C  0.34299011  0.74175277  0.32991329     0.00800
C1331       C  0.32120588  0.71878962  0.34979182    -0.07800
C1332       C  0.33390072  0.69948950  0.38519407    -0.03600
C1333       C  0.36328257  0.70847525  0.40782845     0.00800
C1334       C  0.38661824  0.72722717  0.38180910    -0.07700
C1335       C  0.42405512  0.73014073  0.38933635     0.62700
H1336       H  0.38755268  0.76874145  0.33937792     0.13400
H1337       H  0.31674580  0.68333696  0.40199691     0.13400
C1338       C  0.28335852  0.71994340  0.34537335     0.62900
F1339       F  0.43867783  0.70056034  0.38998063    -0.22300
F1340       F  0.43059163  0.74675956  0.42910642    -0.19600
F1341       F  0.43958005  0.74670579  0.35333678    -0.19300
F1342       F  0.27163241  0.69247755  0.32579554    -0.19300
F1343       F  0.27260397  0.74581265  0.31975757    -0.19600
F1344       F  0.26906679  0.72242057  0.38923636    -0.22300
C1345       C  0.31781909  0.78175379  0.09003292    -0.05100
C1346       C  0.35063429  0.77274137  0.07780686     0.00800
C1347       C  0.37630473  0.79435035  0.09162195    -0.07800
C1348       C  0.37042271  0.81051126  0.13291682    -0.05200
C1349       C  0.34035782  0.80570175  0.15622040     0.00800
C1350       C  0.31254320  0.80099786  0.12820898    -0.07700
C1351       C  0.27851312  0.81434084  0.14035639     0.62700
H1352       H  0.29672433  0.77342747  0.07047868     0.13400
H1353       H  0.39009134  0.82371210  0.14933417     0.13400
C1354       C  0.40706552  0.80515492  0.06405107     0.62900
F1355       F  0.28054837  0.84696134  0.14193469    -0.22300
F1356       F  0.26741036  0.80310201  0.18307773    -0.19600
F1357       F  0.25520198  0.80650881  0.10733165    -0.19300
F1358       F  0.40492675  0.83756007  0.05705123    -0.19300
F1359       F  0.41075887  0.79189603  0.02083822    -0.19600
F1360       F  0.43548082  0.79891748  0.08932018    -0.22300
C1361       C  0.87377982  0.96097618  0.40488151    -0.05100
C1362       C  0.84504180  0.97892392  0.41708498     0.00800
C1363       C  0.82014575  0.46383284  0.40771617    -0.07800
C1364       C  0.82099846  0.44488525  0.36812252    -0.05200
C1365       C  0.84421172  0.94180429  0.34161073     0.00800
C1366       C  0.87250282  0.94002248  0.36833717    -0.07700
C1367       C  0.89749820  0.91371805  0.36145555     0.62700
H1368       H  0.89537586  0.96051720  0.42686988     0.13400
H1369       H  0.79787779  0.43845955  0.35155394     0.13400
C1370       C  0.78608245  0.46714624  0.43141850     0.62900
F1371       F  0.92584974  0.91851606  0.38738451    -0.22300
F1372       F  0.90659689  0.91155424  0.31508500    -0.19600
F1373       F  0.88308929  0.88540932  0.37541049    -0.19300
F1374       F  0.76487271  0.48405765  0.40283657    -0.19300
F1375       F  0.78651937  0.48149589  0.47404100    -0.19600
F1376       F  0.77278739  0.43724695  0.43858822    -0.22300
C1377       C  0.85352976  0.55527763  0.11707232    -0.05100
C1378       C  0.86912484  0.03535566  0.08750282     0.00800
C1379       C  0.88976812  0.01212751  0.10952697    -0.07800
C1380       C  0.87427202  0.99616551  0.14542233    -0.05200
C1381       C  0.84904434  0.01090127  0.17155869     0.00800
C1382       C  0.84837334  0.54591791  0.16315196    -0.07700
C1383       C  0.84695769  0.57296693  0.19715681     0.62700
H1384       H  0.84427088  0.57779559  0.10483831     0.13400
H1385       H  0.88416546  0.97337465  0.15610685     0.13400
C1386       C  0.92320218  0.99921558  0.09200876     0.62900
F1387       F  0.87075864  0.59535783  0.18486882    -0.22300
F1388       F  0.85432204  0.56304699  0.24132595    -0.19600
F1389       F  0.81615746  0.58771834  0.19610346    -0.19300
F1390       F  0.92030180  0.98506537  0.04928057    -0.19300
F1391       F  0.93601197  0.97655668  0.12214440    -0.19600
F1392       F  0.94641133  0.02322773  0.08987051    -0.22300
C1393       C  0.78562764  0.62041534  0.32958023    -0.05100
C1394       C  0.75178261  0.62458978  0.32019665     0.00800
C1395       C  0.73130514  0.59770973  0.31518319    -0.07800
C1396       C  0.74618581  0.56767467  0.31340901    -0.05200
C1397       C  0.78070932  0.56367812  0.31717456     0.00800
C1398       C  0.80085299  0.59044091  0.32744205    -0.07700
C1399       C  0.83846894  0.58986364  0.33303115     0.62700
H1400       H  0.80098594  0.64127605  0.33351476     0.13400
H1401       H  0.73103069  0.54726393  0.30553068     0.13400
C1402       C  0.69416229  0.60015503  0.30732253     0.62900
F1403       F  0.84650283  0.60197573  0.37565849    -0.22300
F1404       F  0.85312286  0.60899304  0.29923107    -0.19600
F1405       F  0.85219503  0.56000024  0.33047743    -0.19300
F1406       F  0.68754023  0.59402152  0.26123757    -0.19300
F1407       F  0.68177336  0.62976068  0.31824638    -0.19600
F1408       F  0.67770725  0.57808013  0.33506241    -0.22300
C1409       C  0.75041843  0.84868003  0.19382131    -0.05100
C1410       C  0.76868137  0.82028530  0.19277929     0.00800
C1411       C  0.80386880  0.82163241  0.18896019    -0.07800
C1412       C  0.81962394  0.85148867  0.18865004    -0.05200
C1413       C  0.80143095  0.87970073  0.19372071     0.00800
C1414       C  0.76620819  0.87841005  0.19555000    -0.07700
C1415       C  0.74563237  0.90806502  0.20340091     0.62700
H1416       H  0.72358210  0.84703699  0.19740044     0.13400
H1417       H  0.84655557  0.85305225  0.18828505     0.13400
C1418       C  0.82468320  0.79164710  0.18921809     0.62900
F1419       F  0.71196528  0.90136432  0.20772493    -0.22300
F1420       F  0.74992514  0.92877340  0.16632988    -0.19600
F1421       F  0.75551548  0.92266075  0.24373375    -0.19300
F1422       F  0.81717099  0.77366127  0.15095996    -0.19300
F1423       F  0.81807423  0.77427426  0.22933797    -0.19600
F1424       F  0.85849820  0.79814131  0.18759768    -0.22300
C1425       C  0.76405105  0.61021631  0.94475723    -0.05100
C1426       C  0.79822560  0.60870823  0.45359768     0.00800
C1427       C  0.81643860  0.63749355  0.45655318    -0.07800
C1428       C  0.79927948  0.66653723  0.45280358    -0.05200
C1429       C  0.76459640  0.66794925  0.44824454     0.00800
C1430       C  0.74666460  0.63931056  0.94379868    -0.07700
C1431       C  0.70885719  0.63912221  0.94333342     0.62700
H1432       H  0.75046302  0.58813058  0.94369577     0.13400
H1433       H  0.81273155  0.68847183  0.45748443     0.13400
C1434       C  0.85356400  0.63918699  0.46573106     0.62900
F1435       F  0.69652401  0.60979213  0.43086874    -0.22300
F1436       F  0.69703968  0.66116985  0.41164286    -0.19600
F1437       F  0.69654366  0.64634912  0.98700317    -0.19300
F1438       F  0.86921033  0.61006017  0.46400562    -0.19300
F1439       F  0.85854388  0.65190897  0.00914422    -0.19600
F1440       F  0.86873718  0.65861723  0.93263917    -0.22300
C1441       C  0.80134806  0.85928448  0.06887533    -0.05100
C1442       C  0.76686820  0.86221206  0.56355681     0.00800
C1443       C  0.75199715  0.89258236  0.56505753    -0.07800
C1444       C  0.77268430  0.91947493  0.56561821    -0.05200
C1445       C  0.80746838  0.91652103  0.56509459     0.00800
C1446       C  0.82201674  0.88615718  0.06975546    -0.07700
C1447       C  0.85942371  0.88246321  0.07454238     0.62700
H1448       H  0.81213527  0.83577559  0.06880786     0.13400
H1449       H  0.76200186  0.94295157  0.56259717     0.13400
C1450       C  0.71449486  0.89639164  0.56431143     0.62900
F1451       F  0.86851704  0.85110469  0.08101352    -0.22300
F1452       F  0.86994900  0.89933654  0.11252881    -0.19600
F1453       F  0.87569970  0.89378795  0.53506377    -0.19300
F1454       F  0.70006161  0.87667795  0.09768945    -0.19300
F1455       F  0.70257076  0.88861832  0.52108240    -0.19600
F1456       F  0.70498084  0.92719612  0.57377072    -0.22300
C1457       C  0.68504947  0.78989339  0.38683124    -0.05100
C1458       C  0.71372210  0.79617053  0.41188843     0.00800
C1459       C  0.74397987  0.79207168  0.38662023    -0.07800
C1460       C  0.74329678  0.77127638  0.34891629    -0.05200
C1461       C  0.71346738  0.75501693  0.33828891     0.00800
C1462       C  0.68472177  0.76096703  0.36462392    -0.07700
C1463       C  0.66163482  0.73428646  0.38213895     0.62700
H1464       H  0.66252604  0.80262342  0.39338510     0.13400
H1465       H  0.76584286  0.76644443  0.32913997     0.13400
C1466       C  0.77647297  0.80713085  0.40083845     0.62900
F1467       F  0.67013602  0.72500314  0.42638600    -0.22300
F1468       F  0.66406656  0.70710504  0.35618761    -0.19600
F1469       F  0.62880820  0.74433639  0.38295523    -0.19300
F1470       F  0.78704635  0.79457892  0.44271592    -0.19300
F1471       F  0.77215908  0.83943289  0.40471252    -0.19600
F1472       F  0.80143752  0.80207819  0.36811157    -0.22300
C1473       C  0.74265899  0.71827283  0.10086918    -0.05100
C1474       C  0.71369618  0.73643633  0.09057836     0.00800
C1475       C  0.68459961  0.73094153  0.11669657    -0.07800
C1476       C  0.68351794  0.70159835  0.13821667    -0.05200
C1477       C  0.71191993  0.69344618  0.16326648     0.00800
C1478       C  0.74210920  0.69616690  0.13766169    -0.07700
C1479       C  0.77322569  0.67785685  0.15027875     0.62700
H1480       H  0.76551263  0.72237057  0.08128549     0.13400
H1481       H  0.66002359  0.69065408  0.14495387     0.13400
C1482       C  0.65962807  0.75677296  0.13040430     0.62900
F1483       F  0.76554849  0.64617099  0.15600787    -0.22300
F1484       F  0.78658299  0.68928883  0.19077636    -0.19600
F1485       F  0.79731245  0.68034331  0.11555688    -0.19300
F1486       F  0.62723508  0.74635045  0.12523938    -0.19300
F1487       F  0.66410831  0.78458905  0.10538678    -0.19600
F1488       F  0.66374193  0.76453223  0.17631158    -0.22300
C1489       C  0.71224121  0.78171951  0.96038862     0.30600
C1490       C  0.71187904  0.75307193  0.54479429     0.30600
C1491       C  0.67665391  0.77596033  0.98312948    -0.05600
C1492       C  0.72981300  0.74800094  0.96352800    -0.06300
C1493       C  0.72862339  0.80039507  0.99848986    -0.06200
C1494       C  0.67737830  0.75840206  0.52383868    -0.05600
C1495       C  0.72768633  0.73388727  0.50660257    -0.06300
C1496       C  0.72902226  0.78589964  0.54188337    -0.06200
C1497       C  0.64674216  0.74375122  0.52855160    -0.31600
N1498       N  0.62541856  0.75727705  0.49856785     0.14900
C1499       C  0.64274590  0.77790749  0.97177845    -0.31600
H1500       H  0.63059481  0.79161685  0.94528625     0.16800
C1501       C  0.73688836  0.70259536  0.50340293    -0.30600
N1502       N  0.74813004  0.69711816  0.96026176     0.13600
C1503       C  0.74510033  0.72470310  0.93566390    -0.30600
C1504       C  0.74190733  0.80797607  0.57209397    -0.30900
N1505       N  0.74858581  0.83510330  0.04792569     0.14100
H1506       H  0.74515402  0.80515998  0.60883842     0.16700
C1507       C  0.74017092  0.83073163  0.00307629    -0.30900
H1508       H  0.74205084  0.84861738  0.97606414     0.16700
H1509       H  0.75412607  0.72706816  0.90077446     0.16700
H1510       H  0.64041892  0.72396310  0.55105513     0.16800
H1511       H  0.73580388  0.68459437  0.53040536     0.16700
C1512       C  0.71157662  0.70864793  0.71073860     0.30600
C1513       C  0.71126861  0.73823363  0.79333543     0.30600
C1514       C  0.67638835  0.71323624  0.73436393    -0.05600
C1515       C  0.72960622  0.69109745  0.74879443    -0.06300
C1516       C  0.72828084  0.74271682  0.71152295    -0.06200
C1517       C  0.67663571  0.73176925  0.77334785    -0.05600
C1518       C  0.72995096  0.70597948  0.79166947    -0.06300
C1519       C  0.72621440  0.75738671  0.75378829    -0.06200
C1520       C  0.64427109  0.74224717  0.78070580    -0.31600
N1521       N  0.62373947  0.72542462  0.75380176     0.14900
C1522       C  0.64275232  0.70663796  0.72662705    -0.31600
H1523       H  0.63188890  0.68987790  0.70340825     0.16800
C1524       C  0.73784417  0.68254773  0.82393115    -0.30600
N1525       N  0.74157438  0.65463596  0.80154563     0.13600
C1526       C  0.73570220  0.65956910  0.75599730    -0.30600
C1527       C  0.73857023  0.78763944  0.74980511    -0.30900
N1528       N  0.75177322  0.79156981  0.70720216     0.14100
H1529       H  0.73863480  0.80572481  0.77609031     0.16700
C1530       C  0.74632501  0.76446007  0.68353639    -0.30900
H1531       H  0.75624763  0.76127974  0.64948875     0.16700
H1532       H  0.73412901  0.64106438  0.73050610     0.16700
H1533       H  0.63603764  0.76093510  0.80338373     0.16800
H1534       H  0.73871140  0.68499281  0.86091323     0.16700
C1535       C  0.85710790  0.02736199  0.54028412     0.30600
C1536       C  0.84922991  0.00006071  0.95774355     0.30600
C1537       C  0.84909326  0.99165889  0.54082327    -0.05600
C1538       C  0.83351092  0.54190647  0.51569016    -0.06300
C1539       C  0.88480189  0.03352867  0.50476083    -0.06200
C1540       C  0.84866836  0.97760249  0.99918077    -0.05600
C1541       C  0.82940843  0.52768292  0.97144317    -0.06300
C1542       C  0.88254815  0.01784925  0.96334161    -0.06200
C1543       C  0.83745401  0.94691330  0.00545522    -0.31600
N1544       N  0.82718097  0.94309980  0.04978890     0.14900
C1545       C  0.83150060  0.97139128  0.57062835    -0.31600
H1546       H  0.81983652  0.97822133  0.60282185     0.16800
C1547       C  0.81633093  0.55192236  0.94357783    -0.30600
N1548       N  0.81195608  0.57866231  0.96874003     0.13600
C1549       C  0.82266330  0.57281931  0.51216096    -0.30600
C1550       C  0.92082193  0.51765587  0.94713461    -0.30900
N1551       N  0.94103443  0.53447553  0.97530837     0.14100
H1552       H  0.92990553  0.50396201  0.91810794     0.16700
C1553       C  0.92213569  0.54699831  0.50919896    -0.30900
H1554       H  0.93155409  0.56061301  0.53768597     0.16700
H1555       H  0.82545254  0.59111667  0.53761711     0.16700
H1556       H  0.83259649  0.92993526  0.97849484     0.16800
H1557       H  0.81291175  0.55127318  0.90677079     0.16700
C1558       C  0.84350288  0.99345545  0.71646395     0.30600
C1559       C  0.84688507  0.96203701  0.79807490     0.30600
C1560       C  0.87552038  0.99850537  0.74507473    -0.05600
C1561       C  0.82024045  0.50299568  0.75129975    -0.06300
C1562       C  0.84001600  0.95672894  0.71373438    -0.06200
C1563       C  0.87882281  0.98107990  0.78541833    -0.05600
C1564       C  0.82343630  0.48881106  0.79491928    -0.06300
C1565       C  0.84255345  0.94119639  0.75606858    -0.06200
C1566       C  0.91854555  0.48286784  0.79600085    -0.31600
N1567       N  0.93446549  0.50198758  0.76434165     0.14900
C1568       C  0.91130679  0.51429932  0.73624184    -0.31600
H1569       H  0.91720766  0.52885973  0.70606787     0.16800
C1570       C  0.80936706  0.51097083  0.82481321    -0.30600
N1571       N  0.79463269  0.53453019  0.80025136     0.13600
C1572       C  0.79938028  0.52850027  0.75491264    -0.30600
C1573       C  0.83078739  0.91088014  0.75173001    -0.30900
N1574       N  0.81942520  0.90735581  0.70822143     0.14100
H1575       H  0.82725911  0.89372438  0.77962118     0.16700
C1576       C  0.82351518  0.93544968  0.68527242    -0.30900
H1577       H  0.81272419  0.94054443  0.65217885     0.16700
H1578       H  0.79109473  0.54356470  0.72697752     0.16700
H1579       H  0.93146352  0.46868285  0.82145555     0.16800
H1580       H  0.81301699  0.51215818  0.86125806     0.16700
O1581       O  0.56879132  0.77056601  0.99205105    -0.71100
O1582       O  0.47753316  0.74823128  0.50709602    -0.71400
O1583       O  0.52639502  0.76033517  0.56839880    -0.71200
O1584       O  0.51892371  0.75915765  0.92787647    -0.71200
O1585       O  0.53395212  0.71040440  0.92740153    -0.71200
O1586       O  0.53606426  0.71028927  0.56925827    -0.71200
O1587       O  0.49037635  0.69842798  0.00247792    -0.71200
O1588       O  0.58166219  0.72084154  0.49714358    -0.71300
V1589       V  0.52311732  0.75862189  0.49844783     1.35200
V1590       V  0.53551037  0.71103133  0.49860770     1.35200
C1591       C  0.59084012  0.74938328  0.49497914     0.78100
C1592       C  0.46898091  0.71945014  0.51042836     0.78100
C1593       C  0.53086678  0.73536262  0.59405736     0.78000
C1594       C  0.52545001  0.73487080  0.90203632     0.78000
O1595       O  0.52168246  0.71026665  0.81822257    -0.71100
O1596       O  0.52405833  0.71056045  0.67698110    -0.71400
O1597       O  0.56936597  0.70516450  0.74820030    -0.71200
O1598       O  0.47446320  0.71628563  0.74472203    -0.71200
O1599       O  0.48130560  0.76706881  0.73938510    -0.71200
O1600       O  0.57508727  0.75609656  0.75271081    -0.71200
O1601       O  0.53254133  0.76076209  0.67642649    -0.71200
O1602       O  0.52452100  0.76094321  0.81782284    -0.71300
V1603       V  0.52226876  0.71157634  0.74725901     1.35200
V1604       V  0.52815385  0.76020051  0.74681080     1.35200
C1605       C  0.52368466  0.73539031  0.84366752     0.78100
C1606       C  0.52930866  0.73556415  0.65150012     0.78100
C1607       C  0.58823653  0.72894917  0.75158778     0.78000
C1608       C  0.46189275  0.74359479  0.73786532     0.78000
O1609       O  0.08845787  0.52804325  0.99267223    -0.71100
O1610       O  0.99619264  0.54867874  0.48988416    -0.71400
O1611       O  0.04027206  0.53809379  0.56342557    -0.71200
O1612       O  0.04253724  0.53832360  0.92186585    -0.71200
O1613       O  0.02804232  0.98801498  0.92107607    -0.71200
O1614       O  0.02092949  0.98900703  0.56210694    -0.71200
O1615       O  0.97880023  0.99839610  0.98451689    -0.71200
O1616       O  0.07080973  0.97849621  0.49596552    -0.71300
V1617       V  0.04184635  0.53728057  0.49235451     1.35200
V1618       V  0.02485023  0.98956260  0.49124248     1.35200
C1619       C  0.09815493  0.49964019  0.49507629     0.78100
C1620       C  0.97522081  0.52709577  0.48316908     0.78100
C1621       C  0.03248845  0.51360042  0.58922526     0.78000
C1622       C  0.03777127  0.51336435  0.89701635     0.78000
O1623       O  0.98185474  0.53296001  0.74792305    -0.71100
O1624       O  0.07548865  0.54518878  0.74157950    -0.71400
O1625       O  0.02844879  0.53881153  0.67289866    -0.71200
O1626       O  0.03075076  0.53870271  0.81439819    -0.71200
O1627       O  0.03470992  0.98833152  0.81293629    -0.71200
O1628       O  0.02717954  0.98796450  0.67202065    -0.71200
O1629       O  0.07750803  0.99449725  0.73586923    -0.71200
O1630       O  0.98398868  0.98130822  0.75161564    -0.71300
V1631       V  0.02904578  0.53788138  0.74397422     1.35200
V1632       V  0.03064949  0.98901727  0.74282590     1.35200
C1633       C  0.96966293  0.50574717  0.75550104     0.78100
C1634       C  0.09483956  0.52184489  0.73797132     0.78100
C1635       C  0.03085738  0.51353305  0.64762810     0.78000
C1636       C  0.03628542  0.51361012  0.83961020     0.78000
C1637       C  0.35653386  0.72082186  0.95612367     0.30600
C1638       C  0.35336565  0.75101266  0.53749167     0.30600
C1639       C  0.38601915  0.71572480  0.98885630    -0.05600
C1640       C  0.34942390  0.75705836  0.95380575    -0.06300
C1641       C  0.32787167  0.70911945  0.98707261    -0.06200
C1642       C  0.38517439  0.73230145  0.52966984    -0.05600
C1643       C  0.35044377  0.77204304  0.49507498    -0.06300
C1644       C  0.32607212  0.72439486  0.53080898    -0.06200
C1645       C  0.41594871  0.72910808  0.54948599    -0.31600
N1646       N  0.43523571  0.71132380  0.02097071     0.14900
C1647       C  0.41566744  0.69968264  0.98752493    -0.31600
H1648       H  0.42404464  0.68373709  0.96102378     0.16800
C1649       C  0.33768804  0.80218071  0.49004144    -0.30600
N1650       N  0.32520660  0.80526480  0.94746826     0.13600
C1651       C  0.32988123  0.77715849  0.92620422    -0.30600
C1652       C  0.31518934  0.70053107  0.56143073    -0.30900
N1653       N  0.30938468  0.67336382  0.03818763     0.14100
H1654       H  0.31630014  0.70108973  0.59837940     0.16700
C1655       C  0.31785035  0.67823763  0.99348863    -0.30900
H1656       H  0.32082628  0.65918056  0.96902982     0.16700
H1657       H  0.31689966  0.77073118  0.89572224     0.16700
H1658       H  0.42505034  0.74200948  0.57888455     0.16800
H1659       H  0.33420067  0.81959428  0.51697574     0.16700
C1660       C  0.34227362  0.78619717  0.70011431     0.30600
C1661       C  0.34043399  0.75636530  0.78290609     0.30600
C1662       C  0.37606232  0.76998893  0.71415924    -0.05600
C1663       C  0.33447932  0.80703080  0.74107890    -0.06300
C1664       C  0.31615246  0.75830206  0.70561677    -0.06200
C1665       C  0.37352756  0.75289470  0.75496302    -0.05600
C1666       C  0.33285232  0.79222082  0.78372827    -0.06300
C1667       C  0.31651277  0.74288321  0.74883926    -0.06200
C1668       C  0.40345463  0.73734660  0.76236259    -0.31600
N1669       N  0.42631281  0.74802007  0.73155461     0.14900
C1670       C  0.41002693  0.76781250  0.70128540    -0.31600
H1671       H  0.42238197  0.78031865  0.67311579     0.16800
C1672       C  0.31623497  0.81326093  0.81287235    -0.30600
N1673       N  0.31059222  0.84079356  0.78932854     0.13600
C1674       C  0.32099921  0.83676193  0.74502754    -0.30600
C1675       C  0.30935314  0.71154527  0.74203566    -0.30900
N1676       N  0.30156091  0.70725106  0.69758527     0.14100
H1677       H  0.31296621  0.69230677  0.76647609     0.16700
C1678       C  0.30510598  0.73529055  0.67510825    -0.30900
H1679       H  0.29920957  0.73861310  0.63944824     0.16700
H1680       H  0.31651128  0.85336948  0.71686236     0.16700
H1681       H  0.40900602  0.72079446  0.79008498     0.16800
H1682       H  0.30649454  0.80836820  0.84697889     0.16700
C1683       C  0.21601354  0.00148119  0.94858393     0.30600
C1684       C  0.21362766  0.97177656  0.53186141     0.30600
C1685       C  0.23318149  0.96836046  0.95040917    -0.05600
C1686       C  0.23595505  0.51808228  0.98989002    -0.06300
C1687       C  0.18038063  0.99367350  0.96724699    -0.06200
C1688       C  0.23093249  0.95367153  0.49341784    -0.05600
C1689       C  0.23595058  0.50338024  0.53244582    -0.06300
C1690       C  0.17907470  0.97928869  0.51082402    -0.06200
C1691       C  0.24569390  0.92450267  0.49122497    -0.31600
N1692       N  0.25810851  0.92074242  0.94795742     0.14900
C1693       C  0.25115358  0.94729444  0.92268780    -0.31600
H1694       H  0.25993983  0.95100578  0.88780004     0.16800
C1695       C  0.25022758  0.52525615  0.56197153    -0.30600
N1696       N  0.25636034  0.55265240  0.03826684     0.13600
C1697       C  0.24835001  0.54814303  0.99383796    -0.30600
C1698       C  0.14594569  0.98015063  0.52536118    -0.30900
N1699       N  0.13293191  0.49181156  0.99229185     0.14100
H1700       H  0.14175010  0.47362897  0.56110514     0.16700
C1701       C  0.14779102  0.00037910  0.95500184    -0.30900
H1702       H  0.14498683  0.51054840  0.92442097     0.16700
H1703       H  0.25098133  0.56583062  0.96649276     0.16700
H1704       H  0.24762061  0.90724372  0.51920683     0.16800
H1705       H  0.25595620  0.52160737  0.59748041     0.16700
C1706       C  0.21081338  0.00620971  0.69769617     0.30600
C1707       C  0.21050824  0.03586150  0.77976681     0.30600
C1708       C  0.21762511  0.98549554  0.73995569    -0.05600
C1709       C  0.23919742  0.53421689  0.70107688    -0.06300
C1710       C  0.17712149  0.02178806  0.71081547    -0.06200
C1711       C  0.21759482  0.99991755  0.78186650    -0.05600
C1712       C  0.23996987  0.54803062  0.74467174    -0.06300
C1713       C  0.17681100  0.03718094  0.75401495    -0.06200
C1714       C  0.22491054  0.97619639  0.81396066    -0.31600
N1715       N  0.23045535  0.94841516  0.79178554     0.14900
C1716       C  0.22537353  0.95395727  0.74633193    -0.31600
H1717       H  0.22972111  0.93670010  0.71939782     0.16800
C1718       C  0.24951252  0.57906355  0.73942330    -0.30600
N1719       N  0.25335094  0.58563257  0.69410986     0.13600
C1720       C  0.24536416  0.55939955  0.67024723    -0.30600
C1721       C  0.14373521  0.03820774  0.76789418    -0.30900
N1722       N  0.12989439  0.52652358  0.73485426     0.14100
H1723       H  0.13431618  0.04296094  0.80225075     0.16700
C1724       C  0.14444337  0.01707767  0.69836521    -0.30900
H1725       H  0.13540321  0.00543187  0.66775225     0.16700
H1726       H  0.23923257  0.56051648  0.63437069     0.16700
H1727       H  0.22558880  0.97873691  0.85048842     0.16800
H1728       H  0.25003399  0.59669572  0.76642680     0.16700
C1729       C  0.19898445  0.54326285  0.90000714    -0.05100
C1730       C  0.21944836  0.02272089  0.90709192     0.00800
C1731       C  0.25054014  0.02911153  0.88377307    -0.07800
C1732       C  0.24866039  0.04607986  0.84221948    -0.05200
C1733       C  0.21707656  0.05274995  0.82411585     0.00800
C1734       C  0.19724807  0.55856653  0.85728773    -0.07700
C1735       C  0.17542269  0.58745330  0.85161031     0.62700
H1736       H  0.18142190  0.54975317  0.92700734     0.13400
H1737       H  0.27053384  0.04682785  0.81971284     0.13400
C1738       C  0.28547665  0.01847422  0.89740171     0.62900
F1739       F  0.14269952  0.58032163  0.86311822    -0.22300
F1740       F  0.17698512  0.59925679  0.80654456    -0.19600
F1741       F  0.18628380  0.61069303  0.88127005    -0.19300
F1742       F  0.29765607  0.99779955  0.86436654    -0.19300
F1743       F  0.28768490  0.00418122  0.94048457    -0.19600
F1744       F  0.30611111  0.04466112  0.89781267    -0.22300
C1745       C  0.25169832  0.45532113  0.60067120    -0.05100
C1746       C  0.21630976  0.95369889  0.57663609     0.00800
C1747       C  0.18818438  0.94902165  0.60447291    -0.07800
C1748       C  0.18707766  0.96595665  0.64541660    -0.05200
C1749       C  0.21473627  0.98461161  0.65747115     0.00800
C1750       C  0.25181167  0.47213153  0.64210433    -0.07700
C1751       C  0.28630502  0.47770034  0.66255171     0.62700
H1752       H  0.27487070  0.45218723  0.58143715     0.13400
H1753       H  0.16624306  0.96264285  0.66904013     0.13400
C1754       C  0.16547836  0.92115927  0.59715181     0.62900
F1755       F  0.30247372  0.44885530  0.66668568    -0.22300
F1756       F  0.28633481  0.49110510  0.70588024    -0.19600
F1757       F  0.30487462  0.49679484  0.63270865    -0.19300
F1758       F  0.17538379  0.89644731  0.62576285    -0.19300
F1759       F  0.16714380  0.91124426  0.55147935    -0.19600
F1760       F  0.13282024  0.92884696  0.60817564    -0.22300
C1761       C  0.25544674  0.67299520  0.67925875    -0.05100
C1762       C  0.28992357  0.67770467  0.68015826     0.00800
C1763       C  0.31175847  0.65152923  0.67531452    -0.07800
C1764       C  0.29792563  0.62108115  0.67198529    -0.05200
C1765       C  0.26352449  0.61607063  0.67676445     0.00800
C1766       C  0.24175893  0.64247323  0.67896078    -0.07700
C1767       C  0.20439259  0.63966860  0.68582561     0.62700
H1768       H  0.23915682  0.69323954  0.68397151     0.13400
H1769       H  0.31401454  0.60047973  0.67131697     0.13400
C1770       C  0.34940295  0.65541824  0.67737509     0.62900
F1771       F  0.18842497  0.65843575  0.65323106    -0.22300
F1772       F  0.19582697  0.65023631  0.72970471    -0.19600
F1773       F  0.19307891  0.60901119  0.68128084    -0.19300
F1774       F  0.35863118  0.66576671  0.72069669    -0.19300
F1775       F  0.36011120  0.67716906  0.64429632    -0.19600
F1776       F  0.36584283  0.62714763  0.66932102    -0.22300
C1777       C  0.25719796  0.86482495  0.81251228    -0.05100
C1778       C  0.29163204  0.86788084  0.80431581     0.00800
C1779       C  0.30610721  0.89838177  0.80335919    -0.07800
C1780       C  0.28511544  0.92505668  0.80440688    -0.05200
C1781       C  0.25036406  0.92201598  0.80726016     0.00800
C1782       C  0.23625435  0.89171989  0.81433806    -0.07700
C1783       C  0.19914635  0.88830769  0.82270655     0.62700
H1784       H  0.24666344  0.84127183  0.81434605     0.13400
H1785       H  0.29544149  0.94851053  0.79927670     0.13400
C1786       C  0.34360324  0.90254778  0.79986383     0.62900
F1787       F  0.19020515  0.85707209  0.83073991    -0.22300
F1788       F  0.18190026  0.89947153  0.78453111    -0.19600
F1789       F  0.18995000  0.90567722  0.86126985    -0.19300
F1790       F  0.35512739  0.89386463  0.75642732    -0.19300
F1791       F  0.35887298  0.88389154  0.83324665    -0.19600
F1792       F  0.35282705  0.93365793  0.80687766    -0.22300
C1793       C  0.26332086  0.63933794  0.56057419    -0.05100
C1794       C  0.29791337  0.64329452  0.05602254     0.00800
C1795       C  0.31874630  0.61610630  0.05482819    -0.07800
C1796       C  0.30406355  0.58589093  0.05513707    -0.05200
C1797       C  0.26943637  0.58212287  0.05447556     0.00800
C1798       C  0.24864744  0.60914404  0.55823323    -0.07700
C1799       C  0.21113722  0.60652562  0.55299609     0.62700
H1800       H  0.24775882  0.66030660  0.55979652     0.13400
H1801       H  0.31969298  0.56512252  0.05109959     0.13400
C1802       C  0.35622819  0.61783198  0.04849256     0.62900
F1803       F  0.19511260  0.63406335  0.56619986    -0.22300
F1804       F  0.19862962  0.58198527  0.58011588    -0.19600
F1805       F  0.20344050  0.60000439  0.00751435    -0.19300
F1806       F  0.36841548  0.64833943  0.55516364    -0.19300
F1807       F  0.36468150  0.60775978  0.00431325    -0.19600
F1808       F  0.37139489  0.59812387  0.08067146    -0.22300
C1809       C  0.32570113  0.86136600  0.92876518    -0.05100
C1810       C  0.30746786  0.83312404  0.93254160     0.00800
C1811       C  0.27216018  0.83432612  0.43360489    -0.07800
C1812       C  0.25639961  0.86414269  0.43330958    -0.05200
C1813       C  0.27488273  0.89241445  0.93338095     0.00800
C1814       C  0.30998711  0.89114210  0.93006483    -0.07700
C1815       C  0.33064641  0.92106285  0.93195488     0.62700
H1816       H  0.35263628  0.85973733  0.92903158     0.13400
H1817       H  0.22953415  0.86584276  0.43639669     0.13400
C1818       C  0.25149493  0.80443482  0.43777103     0.62900
F1819       F  0.36448263  0.91469504  0.92954442    -0.22300
F1820       F  0.32408069  0.93662650  0.47298715    -0.19600
F1821       F  0.32278365  0.94068575  0.89503011    -0.19300
F1822       F  0.21782856  0.81105485  0.44264429    -0.19300
F1823       F  0.26114222  0.78688330  0.97609811    -0.19600
F1824       F  0.25585003  0.78674355  0.39814751    -0.22300
C1825       C  0.37268201  0.74870015  0.85135669    -0.05100
C1826       C  0.34282939  0.74171141  0.82978447     0.00800
C1827       C  0.32105029  0.71878685  0.84975037    -0.07800
C1828       C  0.33375748  0.69955503  0.88522612    -0.03600
C1829       C  0.36315031  0.70857624  0.90782474     0.00800
C1830       C  0.38645615  0.72737197  0.88180471    -0.07700
C1831       C  0.42386326  0.73049229  0.88946811     0.62700
H1832       H  0.38730757  0.76880582  0.83920465     0.13400
H1833       H  0.31660049  0.68343307  0.90208795     0.13400
C1834       C  0.28319696  0.71996650  0.84539734     0.62900
F1835       F  0.43866995  0.70099716  0.89010003    -0.22300
F1836       F  0.43022969  0.74711154  0.92929835    -0.19600
F1837       F  0.43935390  0.74716706  0.85354334    -0.19300
F1838       F  0.27141914  0.69247573  0.82595317    -0.19300
F1839       F  0.27244084  0.74580055  0.81970603    -0.19600
F1840       F  0.26894922  0.72253445  0.88927443    -0.22300
C1841       C  0.31792247  0.78183038  0.58989515    -0.05100
C1842       C  0.35073139  0.77277591  0.57771675     0.00800
C1843       C  0.37642652  0.79433638  0.59160142    -0.07800
C1844       C  0.37053412  0.81048212  0.63290952    -0.05200
C1845       C  0.34043099  0.80571977  0.65614049     0.00800
C1846       C  0.31265168  0.80109734  0.62804192    -0.07700
C1847       C  0.27867527  0.81461992  0.64000590     0.62700
H1848       H  0.29683011  0.77355724  0.57028777     0.13400
H1849       H  0.39020626  0.82364728  0.64937814     0.13400
C1850       C  0.40722769  0.80510593  0.56409334     0.62900
F1851       F  0.28091111  0.84722626  0.64166864    -0.22300
F1852       F  0.26737891  0.80339043  0.68263521    -0.19600
F1853       F  0.25542381  0.80696232  0.60680937    -0.19300
F1854       F  0.40517205  0.83752305  0.55717121    -0.19300
F1855       F  0.41090503  0.79188622  0.52085066    -0.19600
F1856       F  0.43561544  0.79877915  0.58937781    -0.22300
C1857       C  0.87402554  0.96090999  0.90494188    -0.05100
C1858       C  0.84524923  0.97882209  0.91707469     0.00800
C1859       C  0.82022504  0.46385244  0.90766129    -0.07800
C1860       C  0.82110779  0.44489852  0.86807591    -0.05200
C1861       C  0.84454547  0.94167280  0.84162116     0.00800
C1862       C  0.87284284  0.93997902  0.86836246    -0.07700
C1863       C  0.89797549  0.91378904  0.86146472     0.62700
H1864       H  0.89559531  0.96047878  0.92698031     0.13400
H1865       H  0.79799685  0.43847437  0.85147853     0.13400
C1866       C  0.78613655  0.46721384  0.93127982     0.62900
F1867       F  0.92639665  0.91883087  0.88714750    -0.22300
F1868       F  0.90692135  0.91153501  0.81504810    -0.19600
F1869       F  0.88379741  0.88544025  0.87570819    -0.19300
F1870       F  0.76502038  0.48424199  0.90270958    -0.19300
F1871       F  0.78656043  0.48147447  0.97396920    -0.19600
F1872       F  0.77273505  0.43734178  0.93828788    -0.22300
C1873       C  0.85357471  0.55529199  0.61706049    -0.05100
C1874       C  0.86914358  0.03534207  0.58751317     0.00800
C1875       C  0.88984360  0.01210803  0.60944285    -0.07800
C1876       C  0.87443094  0.99612301  0.64539358    -0.05200
C1877       C  0.84919414  0.01080219  0.67158076     0.00800
C1878       C  0.84842911  0.54591668  0.66313765    -0.07700
C1879       C  0.84709492  0.57295093  0.69717879     0.62700
H1880       H  0.84434061  0.57782586  0.60485131     0.13400
H1881       H  0.88437085  0.97334432  0.65604838     0.13400
C1882       C  0.92324162  0.99920010  0.59177053     0.62900
F1883       F  0.87091432  0.59531743  0.68486059    -0.22300
F1884       F  0.85449653  0.56300204  0.74132309    -0.19600
F1885       F  0.81631504  0.58774266  0.69621946    -0.19300
F1886       F  0.92024347  0.98505825  0.54905034    -0.19300
F1887       F  0.93612362  0.97653403  0.62183277    -0.19600
F1888       F  0.94644963  0.02321002  0.58954347    -0.22300
C1889       C  0.78564345  0.62044466  0.82948304    -0.05100
C1890       C  0.75177411  0.62456092  0.82019654     0.00800
C1891       C  0.73133716  0.59764125  0.81529210    -0.07800
C1892       C  0.74627075  0.56763039  0.81349423    -0.05200
C1893       C  0.78080614  0.56369298  0.81716592     0.00800
C1894       C  0.80091419  0.59048903  0.82736901    -0.07700
C1895       C  0.83853063  0.58995523  0.83294260     0.62700
H1896       H  0.80097311  0.64133031  0.83335386     0.13400
H1897       H  0.73113899  0.54718871  0.80569766     0.13400
C1898       C  0.69416377  0.60000131  0.80766670     0.62900
F1899       F  0.84655834  0.60212250  0.87553730    -0.22300
F1900       F  0.85315887  0.60905850  0.79908988    -0.19600
F1901       F  0.85228467  0.56009971  0.83046414    -0.19300
F1902       F  0.68739295  0.59373449  0.76166769    -0.19300
F1903       F  0.68175392  0.62961243  0.81850901    -0.19600
F1904       F  0.67785125  0.57796428  0.83563945    -0.22300
C1905       C  0.75059981  0.84865695  0.69391301    -0.05100
C1906       C  0.76879085  0.82022255  0.69283902     0.00800
C1907       C  0.80398273  0.82149070  0.68902099    -0.07800
C1908       C  0.81981320  0.85131222  0.68871979    -0.05200
C1909       C  0.80168930  0.87956471  0.69379478     0.00800
C1910       C  0.76646376  0.87834952  0.69565970    -0.07700
C1911       C  0.74596475  0.90804257  0.70359029     0.62700
H1912       H  0.72375991  0.84707267  0.69750587     0.13400
H1913       H  0.84674921  0.85281616  0.68833252     0.13400
C1914       C  0.82471991  0.79145540  0.68924287     0.62900
F1915       F  0.71228407  0.90141320  0.70794184    -0.22300
F1916       F  0.75028224  0.92877614  0.66655512    -0.19600
F1917       F  0.75590917  0.92257702  0.74394221    -0.19300
F1918       F  0.81721937  0.77355090  0.65089663    -0.19300
F1919       F  0.81800766  0.77403074  0.72928302    -0.19600
F1920       F  0.85855311  0.79787106  0.68775142    -0.22300
C1921       C  0.76395887  0.61020561  0.44477964    -0.05100
C1922       C  0.79832056  0.60870814  0.95353020     0.00800
C1923       C  0.81655486  0.63748069  0.95645365    -0.07800
C1924       C  0.79941571  0.66653115  0.95266506    -0.05200
C1925       C  0.76472777  0.66795756  0.94817135     0.00800
C1926       C  0.74655919  0.63929633  0.44378140    -0.07700
C1927       C  0.70875614  0.63909754  0.44317014     0.62700
H1928       H  0.75038004  0.58811618  0.44367895     0.13400
H1929       H  0.81288383  0.68846011  0.95731085     0.13400
C1930       C  0.85367417  0.63914967  0.96569143     0.62900
F1931       F  0.69658258  0.60978953  0.93124667    -0.22300
F1932       F  0.69709167  0.66111940  0.91173202    -0.19600
F1933       F  0.69635945  0.64621387  0.48683702    -0.19300
F1934       F  0.86930108  0.61001252  0.96397921    -0.19300
F1935       F  0.85846560  0.65196086  0.50916703    -0.19600
F1936       F  0.86858172  0.65865660  0.43264089    -0.22300
C1937       C  0.80140501  0.85929332  0.56888941    -0.05100
C1938       C  0.76681292  0.86219335  0.06353056     0.00800
C1939       C  0.75193218  0.89255787  0.06500880    -0.07800
C1940       C  0.77261144  0.91946031  0.06554016    -0.05200
C1941       C  0.80739965  0.91651480  0.06504657     0.00800
C1942       C  0.82208264  0.88616037  0.56976729    -0.07700
C1943       C  0.85949309  0.88245745  0.57449918     0.62700
H1944       H  0.81218606  0.83578155  0.56880180     0.13400
H1945       H  0.76191963  0.94293186  0.06250047     0.13400
C1946       C  0.71442440  0.89633734  0.06430669     0.62900
F1947       F  0.86858650  0.85109251  0.58090122    -0.22300
F1948       F  0.87004911  0.89929607  0.61250157    -0.19600
F1949       F  0.87565691  0.89376087  0.03510853    -0.19300
F1950       F  0.70009103  0.87672522  0.59764876    -0.19300
F1951       F  0.70247281  0.88852488  0.02110824    -0.19600
F1952       F  0.70488976  0.92713913  0.07373807    -0.22300
C1953       C  0.68501680  0.78983405  0.88684605    -0.05100
C1954       C  0.71368703  0.79614315  0.91189336     0.00800
C1955       C  0.74394023  0.79208877  0.88660684    -0.07800
C1956       C  0.74328057  0.77127639  0.84892358    -0.05200
C1957       C  0.71346514  0.75498682  0.83830734     0.00800
C1958       C  0.68471835  0.76090675  0.86464009    -0.07700
C1959       C  0.66168606  0.73418534  0.88216120     0.62700
H1960       H  0.66248175  0.80255203  0.89338461     0.13400
H1961       H  0.76583162  0.76646370  0.82914878     0.13400
C1962       C  0.77640003  0.80723547  0.90077151     0.62900
F1963       F  0.67026747  0.72486293  0.92636047    -0.22300
F1964       F  0.66410426  0.70703378  0.85614018    -0.19600
F1965       F  0.62884941  0.74420036  0.88308721    -0.19300
F1966       F  0.78701723  0.79474768  0.94266668    -0.19300
F1967       F  0.77200448  0.83953241  0.90458464    -0.19600
F1968       F  0.80136631  0.80220976  0.86803808    -0.22300
C1969       C  0.74261208  0.71832513  0.60083792    -0.05100
C1970       C  0.71365200  0.73649952  0.59057983     0.00800
C1971       C  0.68456860  0.73102249  0.61672761    -0.07800
C1972       C  0.68347867  0.70166791  0.63821390    -0.05200
C1973       C  0.71188550  0.69350170  0.66325168     0.00800
C1974       C  0.74208514  0.69624272  0.63766119    -0.07700
C1975       C  0.77331414  0.67819244  0.65053797     0.62700
H1976       H  0.76546106  0.72243775  0.58124875     0.13400
H1977       H  0.65997872  0.69074189  0.64496419     0.13400
C1978       C  0.65963136  0.75687538  0.63048365     0.62900
F1979       F  0.76585918  0.64649043  0.65664686    -0.22300
F1980       F  0.78656356  0.68994717  0.69090552    -0.19600
F1981       F  0.79740562  0.68063175  0.61581637    -0.19300
F1982       F  0.62722230  0.74651121  0.62527124    -0.19300
F1983       F  0.66417028  0.78471189  0.60553493    -0.19600
F1984       F  0.66373731  0.76458166  0.67641203    -0.22300
loop_ 
_geom_bond_atom_site_label_1 
_geom_bond_atom_site_label_2 
_geom_bond_distance 
_geom_bond_site_symmetry_2 
_ccdc_geom_bond_type 
C1            C3   1.582       .  S
C1            C5   1.518       .  S
C1            C4   1.589       .  S
C1          C466   1.516       .  S
C2            C6   1.533       .  S
C2            C8   1.547       .  S
C2            C7   1.504       .  S
C2          C482   1.487       .  S
C3           C11   1.405       .  A
C3          C502   1.383       .  A
C4           C15   1.411       .  A
C4          C503   1.370       .  A
C5           C19   1.373       .  A
C5          C504   1.384       .  A
C6            C9   1.383       .  A
C6          C499   1.383   1_554  A
C7           C13   1.375       .  A
C7          C500   1.370   1_554  A
C8           C16   1.386       .  A
C8          C501   1.385   1_554  A
C9           N10   1.344   1_554  A
C9           H22   1.080       .  S
N10         C507   1.349       .  A
N10         C103   1.434       .  S
C11         N506   1.349       .  A
C11          H12   1.073       .  S
C13         N510   1.335   1_554  A
C13          H23   1.081       .  S
N14          C15   1.362       .  A
N14         C509   1.335       .  A
N14         C437   1.442       .  S
C15          H21   1.065       .  S
C16         N513   1.359       .  A
C16          H18   1.072       .  S
N17          C19   1.353       .  A
N17         C512   1.359       .  A
N17         C450   1.439       .  S
C19          H20   1.079       .  S
C24          C26   1.575       .  S
C24          C28   1.587       .  S
C24          C27   1.505       .  S
C24         C485   1.516       .  S
C25          C29   1.533       .  S
C25          C31   1.508       .  S
C25          C30   1.558       .  S
C25         C469   1.488       .  S
C26          C34   1.401       .  A
C26          C29   1.376       .  A
C27          C38   1.367       .  A
C27          C30   1.396       .  A
C28          C42   1.409       .  A
C28          C31   1.372       .  A
C29          C32   1.385       .  A
C30          C36   1.390       .  A
C31          C39   1.375       .  A
C32          N33   1.346       .  A
C32          H45   1.079       .  S
N33          C34   1.350       .  A
N33         C119   1.435       .  S
C34          H35   1.076       .  S
C36          N37   1.357       .  A
C36          H46   1.071       .  S
N37          C38   1.345       .  A
N37         C402   1.433       .  S
C38          H44   1.082       .  S
C39          N40   1.338       .  A
C39          H41   1.082       .  S
N40          C42   1.359       .  A
N40         C418   1.444       .  S
C42          H43   1.063       .  S
C47          C49   1.545       .  S
C47          C51   1.520       .  S
C47         C386   1.492       .  S
C47        C1042   1.527       .  S
C48          C52   1.512       .  S
C48          C54   1.545       .  S
C48         C370   1.496       .  S
C48        C1045   1.591       .  S
C49          C57   1.393       .  A
C49         C548   1.345       .  A
C50        C1039   1.528       .  S
C50          C61   1.379       .  A
C50         C549   1.428   1_554  A
C51        C1057   1.365       .  A
C51         C550   1.375   1_554  A
C52          C55   1.381       .  A
C52         C545   1.345       .  A
C53        C1040   1.587       .  S
C53          C59   1.398       .  A
C53         C546   1.428       .  A
C54         C547   1.375       .  A
C54        C1054   1.388       .  A
C55          N56   1.342       .  A
C55          H68   1.082       .  S
N56         C553   1.356       .  A
N56         C453   1.437       .  S
C57         N552   1.356       .  A
C57          H58   1.075       .  S
C59          N60   1.355       .  A
C59          H69   1.071       .  S
N60         C557   1.344       .  A
N60         C434   1.443       .  S
C61         N556   1.344   1_554  A
C61          H67   1.078       .  S
C62        C1046   1.390       .  A
C62          N63   1.362       .  A
C62          H64   1.081       .  S
N63         C561   1.342       .  A
N63         C628   1.428       .  S
C65        C1043   1.366       .  A
C65         N559   1.342   1_554  A
C65          H66   1.080       .  S
C70          C72   1.550       .  S
C70          C74   1.563       .  S
C70         C389   1.495       .  S
C70        C1065   1.510       .  S
C71          C75   1.550       .  S
C71          C77   1.513       .  S
C71         C373   1.509       .  S
C71        C1068   1.583       .  S
C72          C75   1.375       .  A
C72        C1072   1.382       .  A
C73        C1062   1.515   1_545  S
C73          C84   1.371       .  A
C73          C76   1.391   1_545  A
C74          C88   1.398       .  A
C74          C77   1.383       .  A
C75        C1070   1.405       .  A
C76        C1063   1.580       .  S
C76          C82   1.391   1_565  A
C77          C85   1.373       .  A
C78        C1067   1.407       .  A
C78          N79   1.367   1_565  A
C78          H91   1.079       .  S
N79          C80   1.339       .  A
N79         C145   1.443       .  S
C80        C1064   1.382   1_545  A
C80          H81   1.082       .  S
C82          N83   1.351       .  A
C82          H92   1.061       .  S
N83          C84   1.344       .  A
N83         C405   1.440       .  S
C84          H90   1.075       .  S
C85          N86   1.345       .  A
C85          H87   1.083       .  S
N86          C88   1.359       .  A
N86         C421   1.441       .  S
C88          H89   1.070       .  S
O93         V597   1.908       .  S
O93         C599   1.264       .  A
O94         V101   1.896   1_554  S
O94         C104   1.267       .  A
O95         V101   2.020   1_554  S
O95         C105   1.294       .  A
O96         V597   2.039       .  S
O96         C106   1.299       .  A
O97         V598   2.051       .  S
O97         C106   1.305       .  A
O98         V102   2.032   1_554  S
O98         C105   1.299       .  A
O99         V598   1.889       .  S
O99         C600   1.257       .  A
O100        V102   1.899       .  S
O100        C103   1.263       .  A
V101        O589   1.908       .  S
V101        O592   2.039       .  S
V101        V102   2.070       .  T
V102        O593   2.050       .  S
V102        O595   1.890   1_556  S
C103        O589   1.264       .  A
C104        N654   1.426       .  S
C104        O595   1.257       .  A
C105        C118   1.653       .  S
C106        C117   1.681       .  S
O107        V115   2.042       .  S
O107        C117   1.300       .  A
O108        V115   2.023       .  S
O108        C118   1.295       .  A
O109        V115   1.909       .  S
O109        C119   1.265       .  A
O110        V115   1.929       .  S
O110        C120   1.272       .  A
O111        V116   1.917       .  S
O111        C120   1.264       .  A
O112        V116   1.901       .  S
O112        C119   1.263       .  A
O113        V116   2.029       .  S
O113        C118   1.298       .  A
O114        V116   2.047       .  S
O114        C117   1.304       .  A
V115        V116   2.069       .  T
C120        N181   1.453       .  S
O121        V625   1.908       .  S
O121        C627   1.265       .  A
O122        V129   1.896   1_655  S
O122        C132   1.260       .  A
O123        V129   2.046   1_554  S
O123        C133   1.303       .  A
O124        V625   2.028       .  S
O124        C134   1.297       .  A
O125        V626   2.025       .  S
O125       C1126   1.296       .  A
O126        V130   2.043   1_554  S
O126       C1125   1.301       .  A
O127        V626   1.894   1_655  S
O127       C1620   1.264       .  A
O128        V130   1.904       .  S
O128       C1123   1.262       .  A
V129        O617   1.908       .  S
V129        O620   2.028       .  S
V129       V1122   2.070   1_545  T
V130        O621   2.025       .  S
V130        O623   1.894   1_455  S
V130       V1121   2.071       .  T
C131        N707   1.435       .  S
C131        O617   1.265   1_565  A
C131       O1120   1.263       .  A
C132        N559   1.428       .  S
C132       O1615   1.264   1_545  A
C133       O1118   1.301   1_545  A
C133        C147   1.681       .  S
C134       O1117   1.296   1_545  A
C134        C148   1.652       .  S
O135        V143   1.911   1_655  S
O135        C145   1.267       .  A
O136        V143   1.895       .  S
O136        C146   1.260       .  A
O137        V143   2.045       .  S
O137        C147   1.302       .  A
O138        V143   2.027       .  S
O138        C148   1.297       .  A
O139        V144   2.025       .  S
O139       C1140   1.296       .  A
O140        V144   2.043       .  S
O140       C1139   1.302       .  A
O141        V144   1.900       .  S
O141       C1138   1.264       .  A
O142        V144   1.914   1_655  S
O142       C1137   1.265       .  A
V143       V1136   2.070   1_545  T
V144       V1135   2.070       .  T
C145       O1134   1.265   1_545  A
C146        N234   1.426       .  S
C146       O1133   1.264   1_545  A
C147       O1132   1.302   1_545  A
C148       O1131   1.296   1_545  A
C149        C151   1.535       .  S
C149        C153   1.525       .  S
C149        C152   1.558       .  S
C149        C341   1.511       .  S
C150        C154   1.517       .  S
C150        C156   1.586       .  S
C150        C155   1.507   1_554  S
C150        C354   1.491       .  S
C151        C159   1.369       .  A
C151        C650   1.376       .  A
C152        C163   1.402       .  A
C152        C651   1.357       .  A
C153        C167   1.375       .  A
C153        C652   1.422       .  A
C154        C157   1.373       .  A
C154        C647   1.376   1_554  A
C155        C161   1.377       .  A
C155        C648   1.357       .  A
C156        C164   1.397       .  A
C156        C649   1.422   1_554  A
C157        N654   1.356       .  A
C157        H170   1.079       .  S
N158        C159   1.348       .  A
N158        C653   1.356       .  A
N158        C600   1.426       .  S
C159        H160   1.074       .  S
C161        N658   1.334       .  A
C161        H171   1.083   1_556  S
N162        C163   1.354       .  A
N162        C657   1.334       .  A
N162        C322   1.438       .  S
C163        H169   1.065       .  S
C164        N661   1.355       .  A
C164        H166   1.066       .  S
N165        C167   1.340       .  A
N165        C660   1.355       .  A
N165        C306   1.439       .  S
C167        H168   1.081       .  S
C172        C174   1.573       .  S
C172        C176   1.584       .  S
C172        C175   1.507       .  S
C172        C357   1.505       .  S
C173        C177   1.552       .  S
C173        C179   1.497       .  S
C173        C178   1.547       .  S
C173        C338   1.484       .  S
C174        C182   1.411       .  A
C174        C177   1.374       .  A
C175        C186   1.371       .  A
C175        C178   1.372       .  A
C176        C190   1.394       .  A
C176        C179   1.395       .  A
C177        C180   1.385       .  A
C178        C184   1.393       .  A
C179        C187   1.371       .  A
C180        N181   1.343       .  A
C180        H193   1.079       .  S
N181        C182   1.370       .  A
C182        H183   1.078       .  S
C184        N185   1.360       .  A
C184        H194   1.070       .  S
N185        C186   1.349       .  A
N185        C290   1.440       .  S
C186        H192   1.082       .  S
C187        N188   1.335       .  A
C187        H189   1.078       .  S
N188        C190   1.350       .  A
N188        C274   1.432       .  S
C190        H191   1.064       .  S
C195        C197   1.559       .  S
C195        C199   1.556       .  S
C195        C242   1.492       .  S
C195       C1190   1.503       .  S
C196        C200   1.515   1_554  S
C196        C202   1.547       .  S
C196        C258   1.496       .  S
C196       C1193   1.561       .  S
C197        C205   1.396       .  A
C197        C696   1.383       .  A
C198       C1187   1.504       .  S
C198        C209   1.373       .  A
C198        C697   1.364       .  A
C199        C213   1.385       .  A
C199        C698   1.394       .  A
C200        C203   1.368       .  A
C200        C693   1.383       .  A
C201       C1188   1.561   1_545  S
C201        C207   1.391       .  A
C201        C694   1.364   1_554  A
C202        C210   1.388       .  A
C202        C695   1.395   1_554  A
C203        N700   1.346       .  A
C203        H216   1.083   1_556  S
N204        C205   1.360       .  A
N204        C699   1.346       .  A
N204        C325   1.437       .  S
C205        H206   1.070       .  S
C207        N704   1.360       .  A
C207        H217   1.058       .  S
N208        C209   1.338       .  A
N208        C703   1.360       .  A
N208        C309   1.439       .  S
C209        H215   1.083       .  S
C210       N1699   1.354   1_554  A
C210       H1204   1.076       .  S
N211       C1698   1.355       .  A
N211       C1205   1.352   1_565  A
N211        C627   1.435   1_565  S
H212       C1202   1.076       .  S
C213       N1203   1.352       .  A
C213       H1206   1.081       .  S
H214       C1205   1.082       .  S
C218        C220   1.516       .  S
C218        C222   1.544       .  S
C218        C261   1.493       .  S
C218       C1213   1.547       .  S
C219        C223   1.544       .  S
C219        C225   1.548       .  S
C219        C245   1.496       .  S
C219       C1216   1.523       .  S
C220        C228   1.378       .  A
C220        C223   1.358       .  A
C221       C1210   1.545       .  S
C221        C232   1.397       .  A
C221        C224   1.387       .  A
C222        C236   1.376       .  A
C222        C225   1.408       .  A
C223        C226   1.387       .  A
C224       C1211   1.523       .  S
C224        C230   1.373       .  A
C225        C233   1.379       .  A
C226        N227   1.359       .  A
C226        H239   1.059       .  S
N227        C228   1.344       .  A
N227        C293   1.439       .  S
C228        H229   1.083       .  S
C230        N231   1.338       .  A
C230        H240   1.083       .  S
N231        C232   1.352       .  A
N231        C277   1.433       .  S
C232        H238   1.064       .  S
C233       N1226   1.353       .  A
C233        H235   1.075       .  S
N234       C1225   1.354       .  A
N234       C1228   1.349       .  A
C236       N1226   1.348       .  A
C236        H237   1.081       .  S
C241        C246   1.384       .  A
C241       C1234   1.414       .  A
C241        H248   1.080       .  S
C242        C243   1.433       .  A
C242       C1233   1.413       .  A
C243        C250   1.524       .  S
C243        C244   1.390       .  A
C244        C245   1.402       .  A
C244        H249   1.085       .  S
C245       C1238   1.389       .  A
C246        C247   1.508       .  S
C246       C1237   1.388       .  A
C247        F251   1.383       .  S
C247        F252   1.384       .  S
C247        F253   1.383       .  S
C250        F254   1.383       .  S
C250        F255   1.376       .  S
C250        F256   1.384       .  S
C257        C262   1.395       .  A
C257       C1250   1.394       .  A
C257        H264   1.085       .  S
C258        C259   1.389       .  A
C258       C1249   1.393       .  A
C259        C266   1.509       .  S
C259        C260   1.387       .  A
C260        C261   1.412       .  A
C260        H265   1.079       .  S
C261       C1254   1.444       .  A
C262        C263   1.532       .  S
C262       C1253   1.443       .  A
C263        F267   1.384       .  S
C263        F268   1.376       .  S
C263        F269   1.383       .  S
C266        F270   1.383       .  S
C266        F271   1.385       .  S
C266        F272   1.383       .  S
C273        C274   1.398       .  A
C273        C278   1.403       .  A
C273        H280   1.084       .  S
C274        C275   1.416       .  A
C275        C282   1.520       .  S
C275        C276   1.407       .  A
C276        C277   1.402       .  A
C276        H281   1.083       .  S
C277        C278   1.416       .  A
C278        C279   1.513       .  S
C279        F283   1.384       .  S
C279        F284   1.383       .  S
C279        F285   1.382       .  S
C282        F286   1.381       .  S
C282        F287   1.381       .  S
C282        F288   1.383       .  S
C289        C290   1.404       .  A
C289        C294   1.412       .  A
C289        H296   1.083       .  S
C290        C291   1.415       .  A
C291        C298   1.517       .  S
C291        C292   1.405       .  A
C292        C293   1.401       .  A
C292        H297   1.083       .  S
C293        C294   1.412       .  A
C294        C295   1.512       .  S
C295        F299   1.385       .  S
C295        F300   1.383       .  S
C295        F301   1.383       .  S
C298        F302   1.381       .  S
C298        F303   1.383       .  S
C298        F304   1.385       .  S
C305        C310   1.410       .  A
C305        C802   1.401       .  A
C305        H312   1.083       .  S
C306        C307   1.419       .  A
C306        C801   1.401       .  A
C307        C314   1.515       .  S
C307        C308   1.408       .  A
C308        C309   1.400       .  A
C308        H313   1.084       .  S
C309        C806   1.418       .  A
C310        C311   1.519       .  S
C310        C805   1.418       .  A
C311        F315   1.384       .  S
C311        F316   1.381       .  S
C311        F813   1.382       .  S
C314        F319   1.383       .  S
C314        F320   1.383       .  S
C314        F814   1.383       .  S
F317        C807   1.382       .  S
F318        C810   1.383       .  S
C321        C322   1.403       .  A
C321        C326   1.406       .  A
C321        H328   1.083       .  S
C322        C819   1.414       .  A
C323        C330   1.515       .  S
C323        C324   1.409       .  A
C323        C818   1.414       .  A
C324        C821   1.405       .  A
C324        H329   1.083       .  S
C325        C326   1.412       .  A
C325        C820   1.405       .  A
C326        C327   1.515       .  S
C327        F331   1.384       .  S
C327        F333   1.379       .  S
C327        F828   1.383       .  S
C330        F334   1.385       .  S
C330        F336   1.381       .  S
C330        F831   1.384       .  S
F332        C823   1.383       .  S
F335        C826   1.384       .  S
C337        C338   1.390       .  A
C337        C342   1.370       .  A
C337        H344   1.086       .  S
C338        C339   1.420       .  A
C339        C346   1.526       .  S
C339        C340   1.398       .  A
C340        C341   1.408       .  A
C340        H345   1.076       .  S
C341        C342   1.426       .  A
C342        C343   1.525       .  S
C343        F347   1.380       .  S
C343        F348   1.377       .  S
C343        F349   1.385       .  S
C346        F350   1.383       .  S
C346        F351   1.381       .  S
C346        F352   1.385       .  S
C353        C354   1.411       .  A
C353        C358   1.389       .  A
C353        H360   1.083       .  S
C354        C355   1.441       .  A
C355        C362   1.527       .  S
C355        C356   1.396       .  A
C356        C357   1.387       .  A
C356        H361   1.083       .  S
C357        C358   1.399       .  A
C358        C359   1.514       .  S
C359        F363   1.382       .  S
C359        F364   1.381       .  S
C359        F365   1.385       .  S
C362        F366   1.384       .  S
C362        F367   1.376       .  S
C362        F368   1.383       .  S
C369        C370   1.419       .  A
C369        C374   1.385       .  A
C369        H376   1.079       .  S
C370       C1363   1.443       .  A
C371        C378   1.533       .  S
C371        C372   1.405       .  A
C371       C1362   1.444       .  A
C372       C1365   1.399       .  A
C372        H377   1.083       .  S
C373        C374   1.384       .  A
C373       C1364   1.396       .  A
C374        C375   1.509       .  S
C375        F379   1.384       .  S
C375        F380   1.384       .  S
C375        F381   1.382       .  S
C378        F382   1.379   1_565  S
C378        F383   1.378       .  S
C378        F384   1.385       .  S
C385        C390   1.390       .  A
C385       C1378   1.389       .  A
C385        H392   1.077       .  S
C386        C387   1.429       .  A
C386       C1377   1.391       .  A
C387        C394   1.528       .  S
C387        C388   1.370       .  A
C388        C389   1.403       .  A
C388        H393   1.083       .  S
C389       C1382   1.437       .  A
C390        C391   1.515       .  S
C390       C1381   1.438       .  A
C391        F395   1.385       .  S
C391        F396   1.367       .  S
C391        F397   1.383       .  S
C394        F398   1.380       .  S
C394        F399   1.386       .  S
C394        F400   1.379       .  S
C401        C402   1.397       .  A
C401        C406   1.406       .  A
C401        H408   1.085       .  S
C402        C403   1.412       .  A
C403        C410   1.514       .  S
C403        C404   1.404       .  A
C404        C405   1.402       .  A
C404        H409   1.084       .  S
C405        C406   1.427       .  A
C406        C407   1.518       .  S
C407        F411   1.376       .  S
C407        F412   1.384       .  S
C407        F413   1.377       .  S
C410        F414   1.383       .  S
C410        F415   1.384       .  S
C410        F416   1.383       .  S
C417        C418   1.405       .  A
C417        C422   1.410       .  A
C417        H424   1.083       .  S
C418        C419   1.416       .  A
C419        C426   1.516       .  S
C419        C420   1.410       .  A
C420        C421   1.404       .  A
C420        H425   1.082       .  S
C421        C422   1.415       .  A
C422        C423   1.517       .  S
C423        F427   1.385       .  S
C423        F428   1.381       .  S
C423        F429   1.384       .  S
C426        F430   1.382       .  S
C426        F431   1.384       .  S
C426        F432   1.385       .  S
C433        C438   1.411       .  A
C433        C930   1.401       .  A
C433        H440   1.083       .  S
C434        C435   1.422       .  A
C434        C929   1.401       .  A
C435        C442   1.518       .  S
C435        C436   1.409       .  A
C436        C437   1.400       .  A
C436        H441   1.084       .  S
C437        C934   1.420       .  A
C438        C439   1.517       .  S
C438        C933   1.420       .  A
C439        F445   1.382       .  S
C439        F939   1.384       .  S
C439        F940   1.377       .  S
C442        F446   1.382       .  S
C442        F943   1.383       .  S
C442        F944   1.384       .  S
F443        C935   1.384       .  S
F444        C935   1.377       .  S
F447        C938   1.383   1_554  S
F448        C938   1.384       .  S
C449        C454   1.407       .  A
C449        C946   1.400       .  A
C449        H456   1.083       .  S
C450        C451   1.415       .  A
C450        C945   1.400       .  A
C451        C458   1.513       .  S
C451        C452   1.409       .  A
C452        C453   1.401       .  A
C452        H457   1.083       .  S
C453        C950   1.416       .  A
C454        C455   1.517       .  S
C454        C949   1.416       .  A
C455        F459   1.385       .  S
C455        F460   1.382       .  S
C455        F957   1.382       .  S
C458        F463   1.381       .  S
C458        F464   1.385       .  S
C458        F958   1.383       .  S
F461        C951   1.382       .  S
F462        C954   1.383       .  S
C465        C466   1.392       .  A
C465        C470   1.386       .  A
C465        H472   1.066       .  S
C466        C467   1.419       .  A
C467        C474   1.515       .  S
C467        C468   1.405       .  A
C468        C469   1.420       .  A
C468        H473   1.083       .  S
C469        C470   1.398       .  A
C470        C471   1.536       .  S
C471        F475   1.374       .  S
C471        F476   1.379       .  S
C471        F477   1.383       .  S
C474        F478   1.382       .  S
C474        F479   1.381       .  S
C474        F480   1.384       .  S
C481        C482   1.425       .  A
C481        C486   1.404       .  A
C481        H488   1.084       .  S
C482        C483   1.398       .  A
C483        C490   1.532       .  S
C483        C484   1.380       .  A
C484        C485   1.395       .  A
C484        H489   1.066       .  S
C485        C486   1.414       .  A
C486        C487   1.513       .  S
C487        F491   1.382       .  S
C487        F492   1.381       .  S
C487        F493   1.385       .  S
C490        F494   1.383       .  S
C490        F495   1.381       .  S
C490        F496   1.376       .  S
C497        C499   1.582       .  S
C497        C501   1.518       .  S
C497        C500   1.589       .  S
C497        C962   1.516       .  S
C498        C502   1.533       .  S
C498        C504   1.547       .  S
C498        C503   1.504       .  S
C498        C978   1.487       .  S
C499        C507   1.405       .  A
C500        C511   1.411       .  A
C501        C515   1.373   1_556  A
C502        C505   1.382       .  A
C503        C509   1.375       .  A
C504        C512   1.386       .  A
C505        N506   1.344       .  A
C505        H518   1.080       .  S
N506        C599   1.434       .  S
C507        H508   1.073       .  S
C509        H519   1.081       .  S
N510        C511   1.361       .  A
N510        C933   1.442       .  S
C511        H517   1.065       .  S
C512        H514   1.072       .  S
N513        C515   1.353       .  A
N513        C946   1.439       .  S
C515        H516   1.079   1_554  S
C520        C522   1.575       .  S
C520        C524   1.587       .  S
C520        C523   1.505       .  S
C520        C981   1.516       .  S
C521        C525   1.533       .  S
C521        C527   1.508       .  S
C521        C526   1.558       .  S
C521        C965   1.488       .  S
C522        C530   1.401       .  A
C522        C525   1.376       .  A
C523        C534   1.367       .  A
C523        C526   1.396       .  A
C524        C538   1.409       .  A
C524        C527   1.372       .  A
C525        C528   1.385       .  A
C526        C532   1.390       .  A
C527        C535   1.375       .  A
C528        N529   1.346       .  A
C528        H541   1.079       .  S
N529        C530   1.350       .  A
N529        C615   1.435       .  S
C530        H531   1.076       .  S
C532        N533   1.357       .  A
C532        H542   1.071       .  S
N533        C534   1.345       .  A
N533        C898   1.433       .  S
C534        H540   1.081       .  S
C535        N536   1.338       .  A
C535        H537   1.082       .  S
N536        C538   1.359       .  A
N536        C914   1.444       .  S
C538        H539   1.063       .  S
C543        C545   1.545       .  S
C543        C547   1.520       .  S
C543       C1538   1.527       .  S
C543        C882   1.492       .  S
C544        C548   1.512   1_556  S
C544        C550   1.545       .  S
C544       C1541   1.591       .  S
C544        C866   1.496       .  S
C545        C553   1.393       .  A
C546       C1535   1.528       .  S
C546        C557   1.380       .  A
C547       C1553   1.365       .  A
C548        C551   1.381       .  A
C549       C1536   1.587       .  S
C549        C555   1.398       .  A
C550       C1550   1.388       .  A
C551        N552   1.342       .  A
C551        H564   1.082   1_554  S
N552        C949   1.437       .  S
C553        H554   1.075       .  S
C555        N556   1.355       .  A
C555        H565   1.071       .  S
N556        C930   1.443       .  S
C557        H563   1.078       .  S
C558       C1542   1.390       .  A
C558        N559   1.361       .  A
C558        H560   1.081       .  S
C561       C1539   1.366       .  A
C561        H562   1.080       .  S
C566        C568   1.550       .  S
C566        C570   1.563       .  S
C566       C1561   1.510       .  S
C566        C885   1.495       .  S
C567        C571   1.550       .  S
C567        C573   1.513       .  S
C567       C1564   1.583       .  S
C567        C869   1.509       .  S
C568       C1568   1.382       .  A
C568        C571   1.375       .  A
C569       C1558   1.515   1_545  S
C569        C580   1.371       .  A
C569        C572   1.391   1_545  A
C570        C584   1.398       .  A
C570        C573   1.383       .  A
C571       C1566   1.405       .  A
C572       C1559   1.581       .  S
C572        C578   1.391   1_565  A
C573        C581   1.373       .  A
C574       C1563   1.406       .  A
C574        N575   1.367   1_565  A
C574        H587   1.079       .  S
N575        C576   1.339       .  A
N575        C641   1.442       .  S
C576       C1560   1.382   1_545  A
C576        H577   1.082       .  S
C578        N579   1.351       .  A
C578        H588   1.061       .  S
N579        C580   1.344       .  A
N579        C901   1.441       .  S
C580        H586   1.075       .  S
C581        N582   1.345       .  A
C581        H583   1.083       .  S
N582        C584   1.359       .  A
N582        C917   1.441       .  S
C584        H585   1.070       .  S
O590        V597   1.896       .  S
O590        C600   1.267       .  A
O591        V597   2.020       .  S
O591        C601   1.294       .  A
O592        C602   1.299       .  A
O593        C602   1.305       .  A
O594        V598   2.032       .  S
O594        C601   1.299       .  A
O596        V598   1.899       .  S
O596        C599   1.263       .  A
V597        V598   2.070       .  T
C601        C614   1.653       .  S
C602        C613   1.681       .  S
O603        V611   2.041       .  S
O603        C613   1.300       .  A
O604        V611   2.023       .  S
O604        C614   1.295       .  A
O605        V611   1.909       .  S
O605        C615   1.265       .  A
O606        V611   1.930       .  S
O606        C616   1.272       .  A
O607        V612   1.917       .  S
O607        C616   1.265       .  A
O608        V612   1.902       .  S
O608        C615   1.263       .  A
O609        V612   2.030       .  S
O609        C614   1.298       .  A
O610        V612   2.046       .  S
O610        C613   1.304       .  A
V611        V612   2.069       .  T
C616        N677   1.454       .  S
O618        V625   1.895   1_655  S
O618        C628   1.260       .  A
O619        V625   2.046       .  S
O619        C629   1.303       .  A
O620        C630   1.297       .  A
O621       C1622   1.296       .  A
O622        V626   2.043       .  S
O622       C1621   1.301       .  A
O623       C1124   1.264       .  A
O624        V626   1.905       .  S
O624       C1619   1.262       .  A
V625       V1618   2.070   1_545  T
V626       V1617   2.071       .  T
C627       O1616   1.263   1_545  A
C628       O1119   1.264   1_545  A
C629       O1614   1.301   1_545  A
C629        C643   1.681       .  S
C630       O1613   1.296   1_545  A
C630        C644   1.652       .  S
O631        V639   1.910   1_655  S
O631        C641   1.267       .  A
O632        V639   1.894       .  S
O632        C642   1.260       .  A
O633        V639   2.045       .  S
O633        C643   1.302       .  A
O634        V639   2.027       .  S
O634        C644   1.297       .  A
O635        V640   2.025       .  S
O635       C1636   1.296       .  A
O636        V640   2.043       .  S
O636       C1635   1.302       .  A
O637        V640   1.900       .  S
O637       C1634   1.264       .  A
O638        V640   1.913   1_655  S
O638       C1633   1.265       .  A
V639       V1632   2.070   1_545  T
V640       V1631   2.070       .  T
C641       O1630   1.264   1_545  A
C642        N730   1.426       .  S
C642       O1629   1.264   1_545  A
C643       O1628   1.302   1_545  A
C644       O1627   1.296   1_545  A
C645        C647   1.535       .  S
C645        C649   1.525       .  S
C645        C648   1.557       .  S
C645        C837   1.510       .  S
C646        C650   1.517       .  S
C646        C652   1.586       .  S
C646        C651   1.507       .  S
C646        C850   1.491       .  S
C647        C655   1.369       .  A
C648        C659   1.402       .  A
C649        C663   1.375       .  A
C650        C653   1.372       .  A
C651        C657   1.377       .  A
C652        C660   1.397       .  A
C653        H666   1.079       .  S
N654        C655   1.348   1_554  A
C655        H656   1.074       .  S
C657        H667   1.083       .  S
N658        C659   1.354       .  A
N658        C818   1.437       .  S
C659        H665   1.066       .  S
C660        H662   1.066       .  S
N661        C663   1.340   1_554  A
N661        C802   1.439       .  S
C663        H664   1.081       .  S
C668        C670   1.574       .  S
C668        C672   1.584       .  S
C668        C671   1.507       .  S
C668        C853   1.505       .  S
C669        C673   1.552       .  S
C669        C675   1.497       .  S
C669        C674   1.547       .  S
C669        C834   1.484       .  S
C670        C678   1.411       .  A
C670        C673   1.374       .  A
C671        C682   1.371       .  A
C671        C674   1.371       .  A
C672        C686   1.394       .  A
C672        C675   1.395       .  A
C673        C676   1.386       .  A
C674        C680   1.393       .  A
C675        C683   1.371       .  A
C676        N677   1.343       .  A
C676        H689   1.079       .  S
N677        C678   1.370       .  A
C678        H679   1.078       .  S
C680        N681   1.360       .  A
C680        H690   1.070       .  S
N681        C682   1.349       .  A
N681        C786   1.440       .  S
C682        H688   1.082       .  S
C683        N684   1.335       .  A
C683        H685   1.078       .  S
N684        C686   1.350       .  A
N684        C770   1.432       .  S
C686        H687   1.064       .  S
C691        C693   1.558       .  S
C691        C695   1.556       .  S
C691       C1686   1.503       .  S
C691        C738   1.492       .  S
C692        C696   1.515       .  S
C692        C698   1.548       .  S
C692       C1689   1.561       .  S
C692        C754   1.496       .  S
C693        C701   1.396       .  A
C694       C1683   1.504       .  S
C694        C705   1.373       .  A
C695        C709   1.386       .  A
C696        C699   1.368       .  A
C697       C1684   1.560   1_545  S
C697        C703   1.391       .  A
C698        C706   1.388       .  A
C699        H712   1.083       .  S
N700        C701   1.360       .  A
N700        C821   1.437       .  S
C701        H702   1.070       .  S
C703        H713   1.058       .  S
N704        C705   1.338   1_554  A
N704        C805   1.439       .  S
C705        H711   1.083       .  S
C706       N1203   1.354       .  A
C706       H1700   1.076       .  S
N707       C1202   1.355   1_556  A
N707       C1701   1.352   1_565  A
H708       C1698   1.076       .  S
C709       N1699   1.352       .  A
C709       H1702   1.081       .  S
H710       C1701   1.082       .  S
C714        C716   1.516       .  S
C714        C718   1.544       .  S
C714       C1709   1.546       .  S
C714        C757   1.492       .  S
C715        C719   1.544       .  S
C715        C721   1.548       .  S
C715       C1712   1.523       .  S
C715        C741   1.496       .  S
C716        C724   1.378       .  A
C716        C719   1.358       .  A
C717       C1706   1.544       .  S
C717        C728   1.397       .  A
C717        C720   1.387       .  A
C718        C732   1.376       .  A
C718        C721   1.408       .  A
C719        C722   1.387       .  A
C720       C1707   1.524       .  S
C720        C726   1.373       .  A
C721        C729   1.379       .  A
C722        N723   1.359       .  A
C722        H735   1.059       .  S
N723        C724   1.344       .  A
N723        C789   1.439       .  S
C724        H725   1.083       .  S
C726        N727   1.338       .  A
C726        H736   1.083       .  S
N727        C728   1.352       .  A
N727        C773   1.433       .  S
C728        H734   1.065       .  S
C729       N1722   1.353       .  A
C729        H731   1.075       .  S
N730       C1721   1.353       .  A
N730       C1724   1.348       .  A
C732       N1722   1.348       .  A
C732        H733   1.081       .  S
C737       C1730   1.413       .  A
C737        C742   1.384       .  A
C737        H744   1.080       .  S
C738       C1729   1.413       .  A
C738        C739   1.433       .  A
C739        C746   1.524       .  S
C739        C740   1.390       .  A
C740        C741   1.402       .  A
C740        H745   1.085       .  S
C741       C1734   1.389       .  A
C742        C743   1.509       .  S
C742       C1733   1.388       .  A
C743        F747   1.383       .  S
C743        F748   1.384       .  S
C743        F749   1.383       .  S
C746        F750   1.383       .  S
C746        F751   1.376       .  S
C746        F752   1.384       .  S
C753       C1746   1.394       .  A
C753        C758   1.395       .  A
C753        H760   1.085       .  S
C754       C1745   1.392       .  A
C754        C755   1.389       .  A
C755        C762   1.509       .  S
C755        C756   1.387       .  A
C756        C757   1.412       .  A
C756        H761   1.079       .  S
C757       C1750   1.444       .  A
C758        C759   1.531       .  S
C758       C1749   1.443       .  A
C759        F763   1.384       .  S
C759        F764   1.376       .  S
C759        F765   1.383       .  S
C762        F766   1.383       .  S
C762        F767   1.385       .  S
C762        F768   1.383       .  S
C769        C770   1.398       .  A
C769        C774   1.403       .  A
C769        H776   1.084       .  S
C770        C771   1.415       .  A
C771        C778   1.520       .  S
C771        C772   1.407       .  A
C772        C773   1.402       .  A
C772        H777   1.083       .  S
C773        C774   1.416       .  A
C774        C775   1.514       .  S
C775        F779   1.383       .  S
C775        F780   1.383       .  S
C775        F781   1.382       .  S
C778        F782   1.381       .  S
C778        F783   1.381       .  S
C778        F784   1.383       .  S
C785        C786   1.404       .  A
C785        C790   1.413       .  A
C785        H792   1.083       .  S
C786        C787   1.416       .  A
C787        C794   1.517       .  S
C787        C788   1.405       .  A
C788        C789   1.401       .  A
C788        H793   1.083       .  S
C789        C790   1.412       .  A
C790        C791   1.512       .  S
C791        F795   1.385       .  S
C791        F796   1.383       .  S
C791        F797   1.383       .  S
C794        F798   1.381       .  S
C794        F799   1.383       .  S
C794        F800   1.385       .  S
C801        C806   1.409       .  A
C801        H808   1.083       .  S
C802        C803   1.419       .  A
C803        C810   1.514       .  S
C803        C804   1.408       .  A
C804        C805   1.400       .  A
C804        H809   1.084       .  S
C806        C807   1.519       .  S
C807        F811   1.384       .  S
C807        F812   1.381       .  S
C810        F815   1.383       .  S
C810        F816   1.383       .  S
C817        C818   1.403       .  A
C817        C822   1.406       .  A
C817        H824   1.083       .  S
C819        C826   1.515       .  S
C819        C820   1.409       .  A
C820        H825   1.083       .  S
C821        C822   1.412       .  A
C822        C823   1.515       .  S
C823        F827   1.384       .  S
C823        F829   1.379       .  S
C826        F830   1.385       .  S
C826        F832   1.381       .  S
C833        C834   1.390       .  A
C833        C838   1.369       .  A
C833        H840   1.086       .  S
C834        C835   1.420       .  A
C835        C842   1.526       .  S
C835        C836   1.398       .  A
C836        C837   1.408       .  A
C836        H841   1.075       .  S
C837        C838   1.427       .  A
C838        C839   1.525       .  S
C839        F843   1.380       .  S
C839        F844   1.378       .  S
C839        F845   1.386       .  S
C842        F846   1.383       .  S
C842        F847   1.381       .  S
C842        F848   1.385       .  S
C849        C850   1.412       .  A
C849        C854   1.389       .  A
C849        H856   1.083       .  S
C850        C851   1.441       .  A
C851        C858   1.527       .  S
C851        C852   1.396       .  A
C852        C853   1.387       .  A
C852        H857   1.083       .  S
C853        C854   1.399       .  A
C854        C855   1.514       .  S
C855        F859   1.382       .  S
C855        F860   1.381       .  S
C855        F861   1.385       .  S
C858        F862   1.384       .  S
C858        F863   1.376       .  S
C858        F864   1.383       .  S
C865        C866   1.419       .  A
C865        C870   1.385       .  A
C865        H872   1.079       .  S
C866       C1859   1.443       .  A
C867        C874   1.533       .  S
C867       C1858   1.444       .  A
C867        C868   1.405       .  A
C868       C1861   1.399       .  A
C868        H873   1.083       .  S
C869       C1860   1.396       .  A
C869        C870   1.384       .  A
C870        C871   1.509       .  S
C871        F875   1.384       .  S
C871        F876   1.384       .  S
C871        F877   1.382       .  S
C874        F878   1.379   1_565  S
C874        F879   1.378       .  S
C874        F880   1.385       .  S
C881       C1874   1.389       .  A
C881        C886   1.390       .  A
C881        H888   1.077       .  S
C882       C1873   1.391       .  A
C882        C883   1.429       .  A
C883        C890   1.528       .  S
C883        C884   1.370       .  A
C884        C885   1.403       .  A
C884        H889   1.083       .  S
C885       C1878   1.437       .  A
C886        C887   1.515       .  S
C886       C1877   1.438       .  A
C887        F891   1.385       .  S
C887        F892   1.367       .  S
C887        F893   1.383       .  S
C890        F894   1.380       .  S
C890        F895   1.386       .  S
C890        F896   1.379       .  S
C897        C898   1.397       .  A
C897        C902   1.407       .  A
C897        H904   1.085       .  S
C898        C899   1.412       .  A
C899        C906   1.514       .  S
C899        C900   1.404       .  A
C900        C901   1.402       .  A
C900        H905   1.084       .  S
C901        C902   1.428       .  A
C902        C903   1.518       .  S
C903        F907   1.376       .  S
C903        F908   1.384       .  S
C903        F909   1.377       .  S
C906        F910   1.383       .  S
C906        F911   1.383       .  S
C906        F912   1.383       .  S
C913        C914   1.405       .  A
C913        C918   1.410       .  A
C913        H920   1.083       .  S
C914        C915   1.416       .  A
C915        C922   1.516       .  S
C915        C916   1.410       .  A
C916        C917   1.404       .  A
C916        H921   1.082       .  S
C917        C918   1.415       .  A
C918        C919   1.517       .  S
C919        F923   1.385       .  S
C919        F924   1.381       .  S
C919        F925   1.384       .  S
C922        F926   1.382       .  S
C922        F927   1.384       .  S
C922        F928   1.385       .  S
C929        C934   1.411       .  A
C929        H936   1.083       .  S
C930        C931   1.422       .  A
C931        C938   1.518       .  S
C931        C932   1.409       .  A
C932        C933   1.400       .  A
C932        H937   1.084       .  S
C934        C935   1.517       .  S
C935        F941   1.382       .  S
C938        F942   1.382       .  S
C945        C950   1.407       .  A
C945        H952   1.083       .  S
C946        C947   1.415       .  A
C947        C954   1.513       .  S
C947        C948   1.409       .  A
C948        C949   1.401       .  A
C948        H953   1.083       .  S
C950        C951   1.516       .  S
C951        F955   1.385       .  S
C951        F956   1.382       .  S
C954        F959   1.381       .  S
C954        F960   1.385       .  S
C961        C962   1.392       .  A
C961        C966   1.387       .  A
C961        H968   1.066       .  S
C962        C963   1.419       .  A
C963        C970   1.515       .  S
C963        C964   1.405       .  A
C964        C965   1.421       .  A
C964        H969   1.083       .  S
C965        C966   1.397       .  A
C966        C967   1.536       .  S
C967        F971   1.374       .  S
C967        F972   1.379       .  S
C967        F973   1.383       .  S
C970        F974   1.382       .  S
C970        F975   1.381       .  S
C970        F976   1.384       .  S
C977        C978   1.425       .  A
C977        C982   1.404       .  A
C977        H984   1.084       .  S
C978        C979   1.398       .  A
C979        C986   1.532       .  S
C979        C980   1.380       .  A
C980        C981   1.395       .  A
C980        H985   1.066       .  S
C981        C982   1.414       .  A
C982        C983   1.513       .  S
C983        F987   1.382       .  S
C983        F988   1.381       .  S
C983        F989   1.385       .  S
C986        F990   1.383       .  S
C986        F991   1.381       .  S
C986        F992   1.376       .  S
C993        C995   1.582       .  S
C993        C997   1.516       .  S
C993        C996   1.590       .  S
C993       C1458   1.516       .  S
C994        C998   1.532       .  S
C994       C1000   1.551       .  S
C994        C999   1.506       .  S
C994       C1474   1.487       .  S
C995       C1003   1.405       .  A
C995       C1494   1.382       .  A
C996       C1007   1.412       .  A
C996       C1495   1.370       .  A
C997       C1011   1.372       .  A
C997       C1496   1.385       .  A
C998       C1491   1.381   1_554  A
C998       C1001   1.382       .  A
C999       C1492   1.370   1_554  A
C999       C1005   1.376       .  A
C1000      C1493   1.385   1_554  A
C1000      C1008   1.388       .  A
C1001      N1002   1.344   1_554  A
C1001      H1014   1.080       .  S
N1002      C1499   1.349       .  A
N1002      C1095   1.433       .  S
C1003      N1498   1.349       .  A
C1003      H1004   1.073       .  S
C1005      N1502   1.335   1_554  A
C1005      H1015   1.081       .  S
N1006      C1501   1.335       .  A
N1006      C1007   1.362       .  A
N1006      C1429   1.444       .  S
C1007      H1013   1.067       .  S
C1008      N1505   1.360       .  A
C1008      H1010   1.072       .  S
N1009      C1504   1.360       .  A
N1009      C1011   1.353       .  A
N1009      C1442   1.439       .  S
C1011      H1012   1.079       .  S
C1016      C1018   1.572       .  S
C1016      C1020   1.590       .  S
C1016      C1019   1.506       .  S
C1016      C1477   1.516       .  S
C1017      C1021   1.536       .  S
C1017      C1023   1.507       .  S
C1017      C1022   1.555       .  S
C1017      C1461   1.486       .  S
C1018      C1026   1.399       .  A
C1018      C1021   1.376       .  A
C1019      C1030   1.368       .  A
C1019      C1022   1.392       .  A
C1020      C1034   1.410       .  A
C1020      C1023   1.373       .  A
C1021      C1024   1.385       .  A
C1022      C1028   1.388       .  A
C1023      C1031   1.375       .  A
C1024      N1025   1.347       .  A
C1024      H1037   1.079       .  S
N1025      C1026   1.349       .  A
N1025      C1111   1.434       .  S
C1026      H1027   1.076       .  S
C1028      N1029   1.358       .  A
C1028      H1038   1.071       .  S
N1029      C1030   1.348       .  A
N1029      C1394   1.434       .  S
C1030      H1036   1.081       .  S
C1031      N1032   1.338       .  A
C1031      H1033   1.082       .  S
N1032      C1034   1.359       .  A
N1032      C1410   1.445       .  S
C1034      H1035   1.063       .  S
C1039      C1041   1.543   1_545  S
C1039      C1043   1.521       .  S
C1039      C1378   1.490       .  S
C1040      C1044   1.514   1_545  S
C1040      C1046   1.546       .  S
C1040      C1362   1.493   1_545  S
C1041      C1049   1.392       .  A
C1041      C1540   1.343   1_554  A
C1042      C1053   1.379       .  A
C1042      C1541   1.425   1_554  A
C1043      C1542   1.374   1_554  A
C1044      C1537   1.343       .  A
C1044      C1047   1.383       .  A
C1045      C1538   1.425       .  A
C1045      C1051   1.398       .  A
C1046      C1539   1.374       .  A
C1047      N1048   1.344       .  A
C1047      H1060   1.083       .  S
N1048      C1545   1.355       .  A
N1048      C1445   1.438       .  S
C1049      N1544   1.355       .  A
C1049      H1050   1.075       .  S
C1051      N1052   1.359       .  A
C1051      H1061   1.070       .  S
N1052      C1549   1.345       .  A
N1052      C1426   1.447       .  S
C1053      N1548   1.345   1_554  A
C1053      H1059   1.078       .  S
C1054      N1055   1.361       .  A
C1054      H1056   1.081       .  S
N1055      C1553   1.342       .  A
N1055      C1620   1.426       .  S
C1057      N1551   1.342   1_554  A
C1057      H1058   1.079       .  S
C1062      C1064   1.551       .  S
C1062      C1066   1.562       .  S
C1062      C1381   1.492   1_565  S
C1063      C1067   1.552       .  S
C1063      C1069   1.516       .  S
C1063      C1365   1.513       .  S
C1064      C1067   1.374       .  A
C1065      C1076   1.367       .  A
C1065      C1068   1.391       .  A
C1066      C1080   1.397       .  A
C1066      C1069   1.381       .  A
C1068      C1074   1.393       .  A
C1069      C1077   1.374       .  A
C1070      N1071   1.364       .  A
C1070      H1083   1.078       .  S
N1071      C1072   1.339       .  A
N1071      C1137   1.441       .  S
C1072      H1073   1.082       .  S
C1074      N1075   1.353       .  A
C1074      H1084   1.062       .  S
N1075      C1076   1.343       .  A
N1075      C1397   1.438       .  S
C1076      H1082   1.074       .  S
C1077      N1078   1.347       .  A
C1077      H1079   1.083       .  S
N1078      C1080   1.361       .  A
N1078      C1413   1.442       .  S
C1080      H1081   1.070       .  S
O1085      V1589   1.907       .  S
O1085      C1591   1.264       .  A
O1086      V1093   1.894   1_554  S
O1086      C1096   1.267       .  A
O1087      V1093   2.020   1_554  S
O1087      C1097   1.294       .  A
O1088      V1589   2.039       .  S
O1088      C1098   1.299       .  A
O1089      V1590   2.051       .  S
O1089      C1098   1.305       .  A
O1090      V1094   2.033   1_554  S
O1090      C1097   1.300       .  A
O1091      V1590   1.888       .  S
O1091      C1592   1.257       .  A
O1092      V1094   1.898       .  S
O1092      C1095   1.262       .  A
V1093      O1581   1.907       .  S
V1093      O1584   2.038       .  S
V1093      V1094   2.070       .  T
V1094      O1585   2.051       .  S
V1094      O1587   1.888   1_556  S
C1095      O1581   1.264       .  A
C1096      N1646   1.425       .  S
C1096      O1587   1.257       .  A
C1097      C1110   1.653       .  S
C1098      C1109   1.682       .  S
O1099      V1107   2.041       .  S
O1099      C1109   1.300       .  A
O1100      V1107   2.023       .  S
O1100      C1110   1.295       .  A
O1101      V1107   1.908       .  S
O1101      C1111   1.265       .  A
O1102      V1107   1.929       .  S
O1102      C1112   1.272       .  A
O1103      V1108   1.915       .  S
O1103      C1112   1.264       .  A
O1104      V1108   1.900       .  S
O1104      C1111   1.262       .  A
O1105      V1108   2.030       .  S
O1105      C1110   1.299       .  A
O1106      V1108   2.047       .  S
O1106      C1109   1.304       .  A
V1107      V1108   2.069       .  T
C1112      N1173   1.452       .  S
O1113      V1617   1.908       .  S
O1113      C1619   1.265       .  A
O1114      V1121   1.895   1_655  S
O1114      C1124   1.260       .  A
O1115      V1121   2.046   1_554  S
O1115      C1125   1.303       .  A
O1116      V1617   2.028       .  S
O1116      C1126   1.297       .  A
O1117      V1618   2.023       .  S
O1118      V1122   2.043   1_554  S
O1119      V1618   1.897   1_655  S
O1120      V1122   1.907       .  S
V1121      O1609   1.908       .  S
V1121      O1612   2.028       .  S
V1122      O1613   2.024       .  S
V1122      O1615   1.897   1_455  S
C1123      N1699   1.434       .  S
C1123      O1609   1.265       .  A
C1124      N1551   1.426       .  S
C1125      C1139   1.681       .  S
C1126      C1140   1.653       .  S
O1127      V1135   1.907   1_655  S
O1127      C1137   1.266       .  A
O1128      V1135   1.889       .  S
O1128      C1138   1.258       .  A
O1129      V1135   2.045       .  S
O1129      C1139   1.302       .  A
O1130      V1135   2.029       .  S
O1130      C1140   1.298       .  A
O1131      V1136   2.025       .  S
O1132      V1136   2.044       .  S
O1133      V1136   1.903       .  S
O1134      V1136   1.915   1_655  S
C1138      N1226   1.422       .  S
C1141      C1143   1.534       .  S
C1141      C1145   1.525       .  S
C1141      C1144   1.558       .  S
C1141      C1333   1.509       .  S
C1142      C1146   1.516       .  S
C1142      C1148   1.586       .  S
C1142      C1147   1.506   1_554  S
C1142      C1346   1.489       .  S
C1143      C1151   1.368       .  A
C1143      C1642   1.375       .  A
C1144      C1155   1.401       .  A
C1144      C1643   1.356       .  A
C1145      C1159   1.376       .  A
C1145      C1644   1.423       .  A
C1146      C1639   1.375   1_554  A
C1146      C1149   1.372       .  A
C1147      C1640   1.356       .  A
C1147      C1153   1.378       .  A
C1148      C1641   1.423   1_554  A
C1148      C1156   1.398       .  A
C1149      N1646   1.356       .  A
C1149      H1162   1.080       .  S
N1150      C1645   1.356       .  A
N1150      C1151   1.347       .  A
N1150      C1592   1.425       .  S
C1151      H1152   1.074       .  S
C1153      N1650   1.335       .  A
C1153      H1163   1.083   1_556  S
N1154      C1649   1.335       .  A
N1154      C1155   1.354       .  A
N1154      C1314   1.438       .  S
C1155      H1161   1.064       .  S
C1156      N1653   1.354       .  A
C1156      H1158   1.065       .  S
N1157      C1652   1.354       .  A
N1157      C1159   1.340       .  A
N1157      C1298   1.439       .  S
C1159      H1160   1.081       .  S
C1164      C1166   1.572       .  S
C1164      C1168   1.584       .  S
C1164      C1167   1.509       .  S
C1164      C1349   1.504       .  S
C1165      C1169   1.551       .  S
C1165      C1171   1.498       .  S
C1165      C1170   1.545       .  S
C1165      C1330   1.481       .  S
C1166      C1174   1.411       .  A
C1166      C1169   1.374       .  A
C1167      C1178   1.372       .  A
C1167      C1170   1.371       .  A
C1168      C1182   1.394       .  A
C1168      C1171   1.397       .  A
C1169      C1172   1.384       .  A
C1170      C1176   1.393       .  A
C1171      C1179   1.373       .  A
C1172      N1173   1.342       .  A
C1172      H1185   1.079       .  S
N1173      C1174   1.370       .  A
C1174      H1175   1.078       .  S
C1176      N1177   1.359       .  A
C1176      H1186   1.070       .  S
N1177      C1178   1.349       .  A
N1177      C1282   1.440       .  S
C1178      H1184   1.082       .  S
C1179      N1180   1.335       .  A
C1179      H1181   1.079       .  S
N1180      C1182   1.350       .  A
N1180      C1266   1.432       .  S
C1182      H1183   1.063       .  S
C1187      C1189   1.559   1_545  S
C1187      C1191   1.556   1_545  S
C1187      C1234   1.490       .  S
C1188      C1192   1.513   1_554  S
C1188      C1194   1.550       .  S
C1188      C1250   1.495       .  S
C1189      C1197   1.396       .  A
C1189      C1688   1.382       .  A
C1190      C1201   1.372       .  A
C1190      C1689   1.365       .  A
C1191      C1205   1.386   1_565  A
C1191      C1690   1.394       .  A
C1192      C1685   1.383       .  A
C1192      C1195   1.368       .  A
C1193      C1686   1.365   1_554  A
C1193      C1199   1.391       .  A
C1194      C1687   1.394   1_554  A
C1194      C1202   1.389       .  A
C1195      N1692   1.346       .  A
C1195      H1208   1.083   1_556  S
N1196      C1691   1.346       .  A
N1196      C1197   1.360       .  A
N1196      C1317   1.437       .  S
C1197      H1198   1.070       .  S
C1199      N1696   1.360       .  A
C1199      H1209   1.059       .  S
N1200      C1695   1.360       .  A
N1200      C1201   1.338       .  A
N1200      C1301   1.437       .  S
C1201      H1207   1.083       .  S
N1203      C1619   1.434       .  S
C1210      C1212   1.517   1_545  S
C1210      C1214   1.547       .  S
C1210      C1253   1.489   1_545  S
C1211      C1215   1.545       .  S
C1211      C1217   1.550       .  S
C1211      C1237   1.495       .  S
C1212      C1220   1.379       .  A
C1212      C1215   1.357   1_565  A
C1213      C1224   1.398       .  A
C1213      C1216   1.390       .  A
C1214      C1228   1.379       .  A
C1214      C1217   1.409       .  A
C1215      C1218   1.388   1_545  A
C1216      C1222   1.373       .  A
C1217      C1225   1.382       .  A
C1218      N1219   1.359       .  A
C1218      H1231   1.058       .  S
N1219      C1220   1.343       .  A
N1219      C1285   1.440       .  S
C1220      H1221   1.083       .  S
C1222      N1223   1.337       .  A
C1222      H1232   1.083       .  S
N1223      C1224   1.352       .  A
N1223      C1269   1.432       .  S
C1224      H1230   1.064       .  S
C1225      H1227   1.075       .  S
C1228      H1229   1.081       .  S
C1233      C1238   1.384       .  A
C1233      H1240   1.080       .  S
C1234      C1235   1.434       .  A
C1235      C1242   1.525       .  S
C1235      C1236   1.389       .  A
C1236      C1237   1.402       .  A
C1236      H1241   1.085       .  S
C1238      C1239   1.509       .  S
C1239      F1243   1.383       .  S
C1239      F1244   1.384       .  S
C1239      F1245   1.383       .  S
C1242      F1246   1.383   1_545  S
C1242      F1247   1.376       .  S
C1242      F1248   1.384       .  S
C1249      C1254   1.395       .  A
C1249      H1256   1.085       .  S
C1250      C1251   1.388       .  A
C1251      C1258   1.508       .  S
C1251      C1252   1.386       .  A
C1252      C1253   1.412       .  A
C1252      H1257   1.079       .  S
C1254      C1255   1.530       .  S
C1255      F1259   1.384       .  S
C1255      F1260   1.375       .  S
C1255      F1261   1.383       .  S
C1258      F1262   1.382       .  S
C1258      F1263   1.385       .  S
C1258      F1264   1.383       .  S
C1265      C1266   1.398       .  A
C1265      C1270   1.403       .  A
C1265      H1272   1.084       .  S
C1266      C1267   1.416       .  A
C1267      C1274   1.521       .  S
C1267      C1268   1.407       .  A
C1268      C1269   1.402       .  A
C1268      H1273   1.083       .  S
C1269      C1270   1.417       .  A
C1270      C1271   1.514       .  S
C1271      F1275   1.383       .  S
C1271      F1276   1.383       .  S
C1271      F1277   1.382       .  S
C1274      F1278   1.381       .  S
C1274      F1279   1.380       .  S
C1274      F1280   1.384       .  S
C1281      C1282   1.405       .  A
C1281      C1286   1.413       .  A
C1281      H1288   1.083       .  S
C1282      C1283   1.415       .  A
C1283      C1290   1.517       .  S
C1283      C1284   1.406       .  A
C1284      C1285   1.401       .  A
C1284      H1289   1.083       .  S
C1285      C1286   1.412       .  A
C1286      C1287   1.512       .  S
C1287      F1291   1.384       .  S
C1287      F1292   1.383       .  S
C1287      F1293   1.384       .  S
C1290      F1294   1.381       .  S
C1290      F1295   1.383       .  S
C1290      F1296   1.384       .  S
C1297      C1794   1.401       .  A
C1297      C1302   1.409       .  A
C1297      H1304   1.083       .  S
C1298      C1793   1.401       .  A
C1298      C1299   1.420       .  A
C1299      C1306   1.514       .  S
C1299      C1300   1.407       .  A
C1300      C1301   1.399       .  A
C1300      H1305   1.084       .  S
C1301      C1798   1.418       .  A
C1302      C1303   1.519       .  S
C1302      C1797   1.418       .  A
C1303      F1307   1.383       .  S
C1303      F1308   1.381       .  S
C1303      F1805   1.382       .  S
C1306      F1806   1.382       .  S
C1306      F1311   1.383       .  S
C1306      F1312   1.383       .  S
F1309      C1799   1.382       .  S
F1310      C1802   1.382       .  S
C1313      C1314   1.403       .  A
C1313      C1318   1.407       .  A
C1313      H1320   1.083       .  S
C1314      C1811   1.414       .  A
C1315      C1322   1.515       .  S
C1315      C1810   1.414       .  A
C1315      C1316   1.408       .  A
C1316      C1813   1.403       .  A
C1316      H1321   1.083       .  S
C1317      C1812   1.403       .  A
C1317      C1318   1.411       .  A
C1318      C1319   1.515       .  S
C1319      F1323   1.384       .  S
C1319      F1820   1.383       .  S
C1319      F1325   1.379       .  S
C1322      F1326   1.384       .  S
C1322      F1823   1.383       .  S
C1322      F1328   1.380       .  S
F1324      C1815   1.383       .  S
F1327      C1818   1.383       .  S
C1329      C1330   1.390       .  A
C1329      C1334   1.369       .  A
C1329      H1336   1.085       .  S
C1330      C1331   1.418       .  A
C1331      C1338   1.526       .  S
C1331      C1332   1.397       .  A
C1332      C1333   1.408       .  A
C1332      H1337   1.077       .  S
C1333      C1334   1.427       .  A
C1334      C1335   1.525       .  S
C1335      F1339   1.380       .  S
C1335      F1340   1.378       .  S
C1335      F1341   1.385       .  S
C1338      F1342   1.382       .  S
C1338      F1343   1.382       .  S
C1338      F1344   1.385       .  S
C1345      C1346   1.411       .  A
C1345      C1350   1.388       .  A
C1345      H1352   1.083       .  S
C1346      C1347   1.440       .  A
C1347      C1354   1.527       .  S
C1347      C1348   1.395       .  A
C1348      C1349   1.387       .  A
C1348      H1353   1.084       .  S
C1349      C1350   1.400       .  A
C1350      C1351   1.514       .  S
C1351      F1355   1.382       .  S
C1351      F1356   1.381       .  S
C1351      F1357   1.385       .  S
C1354      F1358   1.384       .  S
C1354      F1359   1.376       .  S
C1354      F1360   1.382       .  S
C1361      C1362   1.421       .  A
C1361      C1366   1.384       .  A
C1361      H1368   1.079       .  S
C1363      C1370   1.527       .  S
C1363      C1364   1.400       .  A
C1364      H1369   1.084       .  S
C1365      C1366   1.380       .  A
C1366      C1367   1.509       .  S
C1367      F1371   1.384       .  S
C1367      F1372   1.383       .  S
C1367      F1373   1.383       .  S
C1370      F1374   1.382       .  S
C1370      F1375   1.375       .  S
C1370      F1376   1.385       .  S
C1377      C1382   1.392       .  A
C1377      H1384   1.077       .  S
C1378      C1379   1.430       .  A
C1379      C1386   1.529   1_545  S
C1379      C1380   1.370   1_545  A
C1380      C1381   1.403   1_565  A
C1380      H1385   1.083       .  S
C1382      C1383   1.514       .  S
C1383      F1387   1.385       .  S
C1383      F1388   1.369       .  S
C1383      F1389   1.383       .  S
C1386      F1390   1.380       .  S
C1386      F1391   1.386       .  S
C1386      F1392   1.379   1_565  S
C1393      C1394   1.398       .  A
C1393      C1398   1.407       .  A
C1393      H1400   1.084       .  S
C1394      C1395   1.413       .  A
C1395      C1402   1.513       .  S
C1395      C1396   1.403       .  A
C1396      C1397   1.400       .  A
C1396      H1401   1.084       .  S
C1397      C1398   1.427       .  A
C1398      C1399   1.520       .  S
C1399      F1403   1.377       .  S
C1399      F1404   1.383       .  S
C1399      F1405   1.378       .  S
C1402      F1406   1.383       .  S
C1402      F1407   1.383       .  S
C1402      F1408   1.384       .  S
C1409      C1410   1.405       .  A
C1409      C1414   1.410       .  A
C1409      H1416   1.083       .  S
C1410      C1411   1.416       .  A
C1411      C1418   1.516       .  S
C1411      C1412   1.412       .  A
C1412      C1413   1.405       .  A
C1412      H1417   1.082       .  S
C1413      C1414   1.414       .  A
C1414      C1415   1.517       .  S
C1415      F1419   1.384       .  S
C1415      F1420   1.381       .  S
C1415      F1421   1.383       .  S
C1418      F1422   1.382       .  S
C1418      F1423   1.384       .  S
C1418      F1424   1.385       .  S
C1425      C1922   1.402       .  A
C1425      C1430   1.412       .  A
C1425      H1432   1.083       .  S
C1426      C1921   1.402       .  A
C1426      C1427   1.424       .  A
C1427      C1434   1.518       .  S
C1427      C1428   1.409       .  A
C1428      C1429   1.400       .  A
C1428      H1433   1.084       .  S
C1429      C1926   1.420       .  A
C1430      C1431   1.517       .  S
C1430      C1925   1.420       .  A
C1431      F1931   1.385       .  S
C1431      F1932   1.379       .  S
C1431      F1437   1.382       .  S
C1434      F1438   1.381       .  S
C1434      F1935   1.384       .  S
C1434      F1936   1.384       .  S
F1435      C1927   1.385       .  S
F1436      C1927   1.379       .  S
F1439      C1930   1.384   1_554  S
F1440      C1930   1.384       .  S
C1441      C1938   1.401       .  A
C1441      C1446   1.408       .  A
C1441      H1448   1.083       .  S
C1442      C1937   1.401       .  A
C1442      C1443   1.415       .  A
C1443      C1450   1.513       .  S
C1443      C1444   1.409       .  A
C1444      C1445   1.401       .  A
C1444      H1449   1.083       .  S
C1445      C1942   1.415       .  A
C1446      C1447   1.516       .  S
C1446      C1941   1.415       .  A
C1447      F1451   1.385       .  S
C1447      F1452   1.383       .  S
C1447      F1949   1.382       .  S
C1450      F1950   1.383       .  S
C1450      F1455   1.381       .  S
C1450      F1456   1.385       .  S
F1453      C1943   1.382       .  S
F1454      C1946   1.383       .  S
C1457      C1458   1.392       .  A
C1457      C1462   1.386       .  A
C1457      H1464   1.067       .  S
C1458      C1459   1.419       .  A
C1459      C1466   1.515       .  S
C1459      C1460   1.405       .  A
C1460      C1461   1.419       .  A
C1460      H1465   1.083       .  S
C1461      C1462   1.396       .  A
C1462      C1463   1.537       .  S
C1463      F1467   1.374       .  S
C1463      F1468   1.380       .  S
C1463      F1469   1.383       .  S
C1466      F1470   1.381       .  S
C1466      F1471   1.381       .  S
C1466      F1472   1.384       .  S
C1473      C1474   1.423       .  A
C1473      C1478   1.403       .  A
C1473      H1480   1.083       .  S
C1474      C1475   1.399       .  A
C1475      C1482   1.532       .  S
C1475      C1476   1.380       .  A
C1476      C1477   1.396       .  A
C1476      H1481   1.065       .  S
C1477      C1478   1.414       .  A
C1478      C1479   1.513       .  S
C1479      F1483   1.382       .  S
C1479      F1484   1.381       .  S
C1479      F1485   1.385       .  S
C1482      F1486   1.383       .  S
C1482      F1487   1.382       .  S
C1482      F1488   1.377       .  S
C1489      C1491   1.581       .  S
C1489      C1493   1.515       .  S
C1489      C1492   1.590       .  S
C1489      C1954   1.516       .  S
C1490      C1494   1.531       .  S
C1490      C1496   1.551       .  S
C1490      C1495   1.506       .  S
C1490      C1970   1.487       .  S
C1491      C1499   1.405       .  A
C1492      C1503   1.412       .  A
C1493      C1507   1.372   1_556  A
C1494      C1497   1.382       .  A
C1495      C1501   1.376       .  A
C1496      C1504   1.388       .  A
C1497      N1498   1.344       .  A
C1497      H1510   1.080       .  S
N1498      C1591   1.433       .  S
C1499      H1500   1.073       .  S
C1501      H1511   1.081       .  S
N1502      C1503   1.362       .  A
N1502      C1925   1.444       .  S
C1503      H1509   1.066       .  S
C1504      H1506   1.072       .  S
N1505      C1507   1.352       .  A
N1505      C1938   1.439       .  S
C1507      H1508   1.079   1_554  S
C1512      C1514   1.572       .  S
C1512      C1516   1.590       .  S
C1512      C1515   1.506       .  S
C1512      C1973   1.515       .  S
C1513      C1517   1.536       .  S
C1513      C1519   1.507       .  S
C1513      C1518   1.555       .  S
C1513      C1957   1.486       .  S
C1514      C1522   1.399       .  A
C1514      C1517   1.376       .  A
C1515      C1526   1.368       .  A
C1515      C1518   1.391       .  A
C1516      C1530   1.410       .  A
C1516      C1519   1.373       .  A
C1517      C1520   1.385       .  A
C1518      C1524   1.388       .  A
C1519      C1527   1.375       .  A
C1520      N1521   1.347       .  A
C1520      H1533   1.079       .  S
N1521      C1522   1.349       .  A
N1521      C1607   1.434       .  S
C1522      H1523   1.076       .  S
C1524      N1525   1.358       .  A
C1524      H1534   1.071       .  S
N1525      C1526   1.348       .  A
N1525      C1890   1.434       .  S
C1526      H1532   1.081       .  S
C1527      N1528   1.338       .  A
C1527      H1529   1.082       .  S
N1528      C1530   1.359       .  A
N1528      C1906   1.445       .  S
C1530      H1531   1.063       .  S
C1535      C1537   1.543   1_545  S
C1535      C1539   1.521       .  S
C1535      C1874   1.490       .  S
C1536      C1540   1.515   1_545  S
C1536      C1542   1.546       .  S
C1536      C1858   1.493   1_545  S
C1537      C1545   1.392       .  A
C1538      C1549   1.379       .  A
C1540      C1543   1.383   1_556  A
C1541      C1547   1.398       .  A
C1543      N1544   1.343       .  A
C1543      H1556   1.083   1_554  S
N1544      C1941   1.438       .  S
C1545      H1546   1.075       .  S
C1547      N1548   1.359       .  A
C1547      H1557   1.070       .  S
N1548      C1922   1.446       .  S
C1549      H1555   1.078       .  S
C1550      N1551   1.361       .  A
C1550      H1552   1.081       .  S
C1553      H1554   1.079       .  S
C1558      C1560   1.550       .  S
C1558      C1562   1.561       .  S
C1558      C1877   1.492   1_565  S
C1559      C1563   1.552       .  S
C1559      C1565   1.516       .  S
C1559      C1861   1.513       .  S
C1560      C1563   1.374       .  A
C1561      C1572   1.367       .  A
C1561      C1564   1.391       .  A
C1562      C1576   1.397       .  A
C1562      C1565   1.381       .  A
C1564      C1570   1.393       .  A
C1565      C1573   1.374       .  A
C1566      N1567   1.364       .  A
C1566      H1579   1.078       .  S
N1567      C1568   1.339       .  A
N1567      C1633   1.440       .  S
C1568      H1569   1.082       .  S
C1570      N1571   1.353       .  A
C1570      H1580   1.062       .  S
N1571      C1572   1.343       .  A
N1571      C1893   1.438       .  S
C1572      H1578   1.074       .  S
C1573      N1574   1.347       .  A
C1573      H1575   1.083       .  S
N1574      C1576   1.361       .  A
N1574      C1909   1.442       .  S
C1576      H1577   1.070       .  S
O1582      V1589   1.894       .  S
O1582      C1592   1.267       .  A
O1583      V1589   2.020       .  S
O1583      C1593   1.294       .  A
O1584      C1594   1.299       .  A
O1585      C1594   1.305       .  A
O1586      V1590   2.033       .  S
O1586      C1593   1.300       .  A
O1588      V1590   1.898       .  S
O1588      C1591   1.262       .  A
V1589      V1590   2.070       .  T
C1593      C1606   1.653       .  S
C1594      C1605   1.681       .  S
O1595      V1603   2.041       .  S
O1595      C1605   1.300       .  A
O1596      V1603   2.023       .  S
O1596      C1606   1.295       .  A
O1597      V1603   1.909       .  S
O1597      C1607   1.265       .  A
O1598      V1603   1.930       .  S
O1598      C1608   1.272       .  A
O1599      V1604   1.915       .  S
O1599      C1608   1.264       .  A
O1600      V1604   1.900       .  S
O1600      C1607   1.262       .  A
O1601      V1604   2.030       .  S
O1601      C1606   1.298       .  A
O1602      V1604   2.047       .  S
O1602      C1605   1.304       .  A
V1603      V1604   2.069       .  T
C1608      N1669   1.452       .  S
O1610      V1617   1.895   1_655  S
O1610      C1620   1.260       .  A
O1611      V1617   2.045       .  S
O1611      C1621   1.303       .  A
O1612      C1622   1.297       .  A
O1614      V1618   2.043       .  S
O1616      V1618   1.907       .  S
C1621      C1635   1.681       .  S
C1622      C1636   1.653       .  S
O1623      V1631   1.907   1_655  S
O1623      C1633   1.266       .  A
O1624      V1631   1.889       .  S
O1624      C1634   1.258       .  A
O1625      V1631   2.045       .  S
O1625      C1635   1.302       .  A
O1626      V1631   2.029       .  S
O1626      C1636   1.298       .  A
O1627      V1632   2.025       .  S
O1628      V1632   2.044       .  S
O1629      V1632   1.902       .  S
O1630      V1632   1.914   1_655  S
C1634      N1722   1.422       .  S
C1637      C1639   1.534       .  S
C1637      C1641   1.525       .  S
C1637      C1640   1.558       .  S
C1637      C1829   1.509       .  S
C1638      C1642   1.516       .  S
C1638      C1644   1.586       .  S
C1638      C1643   1.506       .  S
C1638      C1842   1.489       .  S
C1639      C1647   1.368       .  A
C1640      C1651   1.401       .  A
C1641      C1655   1.376       .  A
C1642      C1645   1.372       .  A
C1643      C1649   1.378       .  A
C1644      C1652   1.398       .  A
C1645      H1658   1.079       .  S
N1646      C1647   1.347   1_554  A
C1647      H1648   1.074       .  S
C1649      H1659   1.083       .  S
N1650      C1651   1.354       .  A
N1650      C1810   1.438       .  S
C1651      H1657   1.064       .  S
C1652      H1654   1.065       .  S
N1653      C1655   1.340   1_554  A
N1653      C1794   1.439       .  S
C1655      H1656   1.081       .  S
C1660      C1662   1.572       .  S
C1660      C1664   1.584       .  S
C1660      C1663   1.509       .  S
C1660      C1845   1.504       .  S
C1661      C1665   1.551       .  S
C1661      C1667   1.498       .  S
C1661      C1666   1.545       .  S
C1661      C1826   1.481       .  S
C1662      C1670   1.411       .  A
C1662      C1665   1.374       .  A
C1663      C1674   1.372       .  A
C1663      C1666   1.371       .  A
C1664      C1678   1.394       .  A
C1664      C1667   1.397       .  A
C1665      C1668   1.385       .  A
C1666      C1672   1.393       .  A
C1667      C1675   1.372       .  A
C1668      N1669   1.342       .  A
C1668      H1681   1.079       .  S
N1669      C1670   1.370       .  A
C1670      H1671   1.078       .  S
C1672      N1673   1.359       .  A
C1672      H1682   1.070       .  S
N1673      C1674   1.349       .  A
N1673      C1778   1.440       .  S
C1674      H1680   1.082       .  S
C1675      N1676   1.335       .  A
C1675      H1677   1.079       .  S
N1676      C1678   1.350       .  A
N1676      C1762   1.432       .  S
C1678      H1679   1.063       .  S
C1683      C1685   1.559   1_545  S
C1683      C1687   1.556   1_545  S
C1683      C1730   1.490       .  S
C1684      C1688   1.513       .  S
C1684      C1690   1.550       .  S
C1684      C1746   1.494       .  S
C1685      C1693   1.396       .  A
C1686      C1697   1.372       .  A
C1687      C1701   1.386   1_565  A
C1688      C1691   1.368       .  A
C1689      C1695   1.392       .  A
C1690      C1698   1.389       .  A
C1691      H1704   1.083       .  S
N1692      C1693   1.360       .  A
N1692      C1813   1.436       .  S
C1693      H1694   1.070       .  S
C1695      H1705   1.059       .  S
N1696      C1697   1.338   1_554  A
N1696      C1797   1.437       .  S
C1697      H1703   1.083       .  S
C1706      C1708   1.517   1_545  S
C1706      C1710   1.547       .  S
C1706      C1749   1.489   1_545  S
C1707      C1711   1.545   1_545  S
C1707      C1713   1.550       .  S
C1707      C1733   1.496       .  S
C1708      C1716   1.378       .  A
C1708      C1711   1.358       .  A
C1709      C1720   1.398       .  A
C1709      C1712   1.390       .  A
C1710      C1724   1.379       .  A
C1710      C1713   1.410       .  A
C1711      C1714   1.388       .  A
C1712      C1718   1.373       .  A
C1713      C1721   1.382       .  A
C1714      N1715   1.359       .  A
C1714      H1727   1.058       .  S
N1715      C1716   1.343       .  A
N1715      C1781   1.440       .  S
C1716      H1717   1.083       .  S
C1718      N1719   1.337       .  A
C1718      H1728   1.083       .  S
N1719      C1720   1.352       .  A
N1719      C1765   1.432       .  S
C1720      H1726   1.064       .  S
C1721      H1723   1.075       .  S
C1724      H1725   1.081       .  S
C1729      C1734   1.384       .  A
C1729      H1736   1.080       .  S
C1730      C1731   1.434       .  A
C1731      C1738   1.525       .  S
C1731      C1732   1.389       .  A
C1732      C1733   1.402       .  A
C1732      H1737   1.084       .  S
C1734      C1735   1.509       .  S
C1735      F1739   1.383       .  S
C1735      F1740   1.384       .  S
C1735      F1741   1.383       .  S
C1738      F1742   1.383   1_545  S
C1738      F1743   1.376       .  S
C1738      F1744   1.384       .  S
C1745      C1750   1.395       .  A
C1745      H1752   1.085       .  S
C1746      C1747   1.389       .  A
C1747      C1754   1.508       .  S
C1747      C1748   1.386       .  A
C1748      C1749   1.412       .  A
C1748      H1753   1.079       .  S
C1750      C1751   1.530       .  S
C1751      F1755   1.384       .  S
C1751      F1756   1.375       .  S
C1751      F1757   1.383       .  S
C1754      F1758   1.382       .  S
C1754      F1759   1.385       .  S
C1754      F1760   1.383       .  S
C1761      C1762   1.398       .  A
C1761      C1766   1.403       .  A
C1761      H1768   1.084       .  S
C1762      C1763   1.417       .  A
C1763      C1770   1.521       .  S
C1763      C1764   1.407       .  A
C1764      C1765   1.401       .  A
C1764      H1769   1.083       .  S
C1765      C1766   1.417       .  A
C1766      C1767   1.514       .  S
C1767      F1771   1.383       .  S
C1767      F1772   1.383       .  S
C1767      F1773   1.382       .  S
C1770      F1774   1.381       .  S
C1770      F1775   1.380       .  S
C1770      F1776   1.384       .  S
C1777      C1778   1.404       .  A
C1777      C1782   1.413       .  A
C1777      H1784   1.083       .  S
C1778      C1779   1.415       .  A
C1779      C1786   1.517       .  S
C1779      C1780   1.406       .  A
C1780      C1781   1.402       .  A
C1780      H1785   1.083       .  S
C1781      C1782   1.412       .  A
C1782      C1783   1.512       .  S
C1783      F1787   1.384       .  S
C1783      F1788   1.383       .  S
C1783      F1789   1.384       .  S
C1786      F1790   1.381       .  S
C1786      F1791   1.383       .  S
C1786      F1792   1.384       .  S
C1793      C1798   1.409       .  A
C1793      H1800   1.083       .  S
C1794      C1795   1.420       .  A
C1795      C1802   1.514       .  S
C1795      C1796   1.407       .  A
C1796      C1797   1.399       .  A
C1796      H1801   1.084       .  S
C1798      C1799   1.518       .  S
C1799      F1803   1.383       .  S
C1799      F1804   1.382       .  S
C1802      F1807   1.383       .  S
C1802      F1808   1.383       .  S
C1809      C1810   1.403       .  A
C1809      C1814   1.407       .  A
C1809      H1816   1.083       .  S
C1811      C1818   1.515       .  S
C1811      C1812   1.408       .  A
C1812      H1817   1.083       .  S
C1813      C1814   1.411       .  A
C1814      C1815   1.515       .  S
C1815      F1819   1.384       .  S
C1815      F1821   1.379       .  S
C1818      F1822   1.384       .  S
C1818      F1824   1.380       .  S
C1825      C1826   1.389       .  A
C1825      C1830   1.369       .  A
C1825      H1832   1.085       .  S
C1826      C1827   1.418       .  A
C1827      C1834   1.526       .  S
C1827      C1828   1.397       .  A
C1828      C1829   1.409       .  A
C1828      H1833   1.077       .  S
C1829      C1830   1.427       .  A
C1830      C1831   1.526       .  S
C1831      F1835   1.379       .  S
C1831      F1836   1.378       .  S
C1831      F1837   1.385       .  S
C1834      F1838   1.382       .  S
C1834      F1839   1.382       .  S
C1834      F1840   1.385       .  S
C1841      C1842   1.411       .  A
C1841      C1846   1.388       .  A
C1841      H1848   1.083       .  S
C1842      C1843   1.440       .  A
C1843      C1850   1.526       .  S
C1843      C1844   1.395       .  A
C1844      C1845   1.387       .  A
C1844      H1849   1.084       .  S
C1845      C1846   1.400       .  A
C1846      C1847   1.514       .  S
C1847      F1851   1.382       .  S
C1847      F1852   1.381       .  S
C1847      F1853   1.385       .  S
C1850      F1854   1.384       .  S
C1850      F1855   1.376       .  S
C1850      F1856   1.382       .  S
C1857      C1858   1.421       .  A
C1857      C1862   1.384       .  A
C1857      H1864   1.079       .  S
C1859      C1866   1.527       .  S
C1859      C1860   1.400       .  A
C1860      H1865   1.084       .  S
C1861      C1862   1.380       .  A
C1862      C1863   1.509       .  S
C1863      F1867   1.384       .  S
C1863      F1868   1.383       .  S
C1863      F1869   1.383       .  S
C1866      F1870   1.382       .  S
C1866      F1871   1.375       .  S
C1866      F1872   1.385       .  S
C1873      C1878   1.392       .  A
C1873      H1880   1.077       .  S
C1874      C1875   1.430       .  A
C1875      C1882   1.529   1_545  S
C1875      C1876   1.370   1_545  A
C1876      C1877   1.403   1_565  A
C1876      H1881   1.083       .  S
C1878      C1879   1.514       .  S
C1879      F1883   1.385       .  S
C1879      F1884   1.369       .  S
C1879      F1885   1.383       .  S
C1882      F1886   1.380       .  S
C1882      F1887   1.386       .  S
C1882      F1888   1.379   1_565  S
C1889      C1890   1.398       .  A
C1889      C1894   1.407       .  A
C1889      H1896   1.084       .  S
C1890      C1891   1.413       .  A
C1891      C1898   1.513       .  S
C1891      C1892   1.403       .  A
C1892      C1893   1.400       .  A
C1892      H1897   1.084       .  S
C1893      C1894   1.427       .  A
C1894      C1895   1.520       .  S
C1895      F1899   1.377       .  S
C1895      F1900   1.383       .  S
C1895      F1901   1.378       .  S
C1898      F1902   1.383       .  S
C1898      F1903   1.383       .  S
C1898      F1904   1.384       .  S
C1905      C1906   1.405       .  A
C1905      C1910   1.410       .  A
C1905      H1912   1.083       .  S
C1906      C1907   1.416       .  A
C1907      C1914   1.516       .  S
C1907      C1908   1.412       .  A
C1908      C1909   1.405       .  A
C1908      H1913   1.082       .  S
C1909      C1910   1.414       .  A
C1910      C1911   1.517       .  S
C1911      F1915   1.384       .  S
C1911      F1916   1.381       .  S
C1911      F1917   1.383       .  S
C1914      F1918   1.382       .  S
C1914      F1919   1.384       .  S
C1914      F1920   1.385       .  S
C1921      C1926   1.412       .  A
C1921      H1928   1.083       .  S
C1922      C1923   1.424       .  A
C1923      C1930   1.518       .  S
C1923      C1924   1.409       .  A
C1924      C1925   1.400       .  A
C1924      H1929   1.084       .  S
C1926      C1927   1.517       .  S
C1927      F1933   1.382       .  S
C1930      F1934   1.382       .  S
C1937      C1942   1.408       .  A
C1937      H1944   1.083       .  S
C1938      C1939   1.415       .  A
C1939      C1946   1.513       .  S
C1939      C1940   1.409       .  A
C1940      C1941   1.401       .  A
C1940      H1945   1.083       .  S
C1942      C1943   1.516       .  S
C1943      F1947   1.385       .  S
C1943      F1948   1.383       .  S
C1946      F1951   1.381       .  S
C1946      F1952   1.385       .  S
C1953      C1954   1.392       .  A
C1953      C1958   1.386       .  A
C1953      H1960   1.067       .  S
C1954      C1955   1.419       .  A
C1955      C1962   1.515       .  S
C1955      C1956   1.405       .  A
C1956      C1957   1.420       .  A
C1956      H1961   1.083       .  S
C1957      C1958   1.396       .  A
C1958      C1959   1.537       .  S
C1959      F1963   1.374       .  S
C1959      F1964   1.380       .  S
C1959      F1965   1.383       .  S
C1962      F1966   1.381       .  S
C1962      F1967   1.381       .  S
C1962      F1968   1.384       .  S
C1969      C1970   1.423       .  A
C1969      C1974   1.403       .  A
C1969      H1976   1.083       .  S
C1970      C1971   1.399       .  A
C1971      C1978   1.532       .  S
C1971      C1972   1.380       .  A
C1972      C1973   1.396       .  A
C1972      H1977   1.065       .  S
C1973      C1974   1.414       .  A
C1974      C1975   1.513       .  S
C1975      F1979   1.382       .  S
C1975      F1980   1.381       .  S
C1975      F1981   1.385       .  S
C1978      F1982   1.383       .  S
C1978      F1983   1.382       .  S
C1978      F1984   1.377       .  S
