geometry optimzed in LAMMPS
_audit_creation_date              2020-11-30 
_audit_creation_method            'lammps2cif' 
_symmetry_space_group_name_H-M    'P1' 
_symmetry_Int_Tables_number       1 
_symmetry_cell_setting            triclinic 
loop_ 
_symmetry_equiv_pos_as_xyz 
  x,y,z 
_cell_length_a                    38.6474251 
_cell_length_b                    31.288430777865194 
_cell_length_c                    36.01710792436877 
_cell_angle_alpha                 90.08349460341901 
_cell_angle_beta                  103.55898965038023 
_cell_angle_gamma                 89.83946244170566 
loop_ 
_atom_site_label 
_atom_site_type_symbol 
_atom_site_fract_x 
_atom_site_fract_y 
_atom_site_fract_z 
_atom_site_charge 
O1          O  0.49879351  0.92871207  0.01555891    -0.71800
O2          O  0.45088421  0.03413000  0.98911214    -0.72000
O3          O  0.46634029  0.96714351  0.94968879    -0.71900
O4          O  0.48324693  0.99626850  0.05494098    -0.71900
O5          O  0.03242043  0.02795055  0.05173016    -0.71800
O6          O  0.01794546  0.99554685  0.94729374    -0.71800
O7          O  0.00065176  0.06402341  0.98472138    -0.71800
O8          O  0.04954269  0.95952159  0.01390561    -0.72000
V9          V  0.47582220  0.98210083  0.00230801     1.35200
V10         V  0.02419747  0.01120062  0.99951385     1.35200
C11         C  0.03277275  0.92622600  0.01895078     0.77500
C12         C  0.46726931  0.06683778  0.98188663     0.77500
C13         C  0.48899939  0.97597009  0.93062142     0.77400
C14         C  0.01023081  0.01791612  0.07111949     0.77300
C15         C  0.33161036  0.33924136  0.89941145     0.03100
C16         C  0.31659197  0.36426807  0.92395898    -0.13000
C17         C  0.29844688  0.40229680  0.91091840     0.00600
C18         C  0.29551697  0.41514458  0.87295091    -0.11500
C19         C  0.31037209  0.39037817  0.84804158     0.03100
C20         C  0.32909420  0.35298873  0.86183389    -0.11000
H21         H  0.31842297  0.35369658  0.95300144     0.08700
H22         H  0.28158706  0.44449347  0.86274959     0.06200
H23         H  0.34197839  0.33457538  0.84338639     0.06100
C24         C  0.16689234  0.65311861  0.10182854     0.03100
C25         C  0.17928470  0.62690444  0.07596635    -0.13000
C26         C  0.19703580  0.58840070  0.08811267     0.00600
C27         C  0.20269076  0.57636509  0.12657737    -0.11500
C28         C  0.19031673  0.60201394  0.15269581     0.03100
C29         C  0.17241610  0.64030471  0.14018425    -0.11000
H30         H  0.17512217  0.63645695  0.04633186     0.08700
H31         H  0.21731225  0.54730988  0.13638054     0.06200
H32         H  0.16228404  0.65972721  0.16023685     0.06100
O33         O  0.25596073  0.43122907  0.48525379    -0.71800
O34         O  0.30766839  0.53414008  0.51341283    -0.72000
O35         O  0.28987244  0.46710062  0.55166676    -0.71900
O36         O  0.27352118  0.49816072  0.44704671    -0.71900
O37         O  0.22308040  0.52653939  0.45018706    -0.71800
O38         O  0.24310285  0.50305248  0.55637754    -0.71800
O39         O  0.25836556  0.56721684  0.51375995    -0.71800
O40         O  0.20799821  0.46244048  0.49333378    -0.72000
V41         V  0.28087042  0.48327682  0.49943638     1.35200
V42         V  0.23406614  0.51424936  0.50328081     1.35200
C43         C  0.22328559  0.42909818  0.48524693     0.77500
C44         C  0.29181182  0.56841353  0.51825301     0.77500
C45         C  0.26946190  0.48023045  0.57211261     0.77000
C46         C  0.24503486  0.51678544  0.43041219     0.77300
C47         C  0.07351143  0.16900711  0.39522330     0.03100
C48         C  0.05768968  0.14610010  0.42041990    -0.13000
C49         C  0.03731625  0.10946913  0.40817442     0.00600
C50         C  0.03268110  0.09561985  0.37023553    -0.11500
C51         C  0.04841356  0.11801994  0.34478266     0.03100
C52         C  0.06883034  0.15453806  0.35735561    -0.11000
H53         H  0.06114081  0.15680104  0.44969438     0.08700
H54         H  0.01739946  0.06701441  0.36069356     0.06200
H55         H  0.08164288  0.17106583  0.33781312     0.06100
C56         C  0.42546870  0.84296586  0.59907227     0.03100
C57         C  0.43226162  0.85280208  0.63820486    -0.13000
C58         C  0.44735115  0.89225758  0.65204920     0.00600
C59         C  0.45541623  0.92200818  0.62611068    -0.11500
C60         C  0.44972548  0.91217328  0.58713450     0.03100
C61         C  0.43420730  0.87285035  0.57370559    -0.11000
H62         H  0.42565278  0.82973999  0.65785861     0.08700
H63         H  0.46670693  0.95270207  0.63631708     0.06200
H64         H  0.42926814  0.86531230  0.54353946     0.06100
C65         C  0.02286447  0.08420610  0.43585266    -0.19900
C66         C  0.48680884  0.07585558  0.43025561     0.36400
C67         C  0.47472976  0.04967617  0.45635187    -0.25800
C68         C  0.99800960  0.03221749  0.48801809     0.02800
C69         C  0.03453997  0.04195346  0.49449836     0.27600
C70         C  0.04658646  0.06789422  0.46836168    -0.25000
N71         N  0.46199271  0.09435722  0.39822302    -0.82400
H72         H  0.44658843  0.04279768  0.45187997     0.13400
C73         C  0.48546778  0.00139650  0.51311330     0.02800
N74         N  0.05924258  0.02504160  0.52743542    -0.80900
H75         H  0.07474262  0.07476420  0.47291712     0.18200
C76         C  0.99665485  0.95935152  0.51487915    -0.25800
C77         C  0.48598830  0.92933571  0.53940552     0.36300
C78         C  0.46158970  0.94236922  0.56088104    -0.19800
C79         C  0.44965591  0.98496975  0.55854635    -0.25000
C80         C  0.46145249  0.01469460  0.53491943     0.27600
H81         H  0.01474216  0.94953980  0.49756144     0.13400
N82         N  0.49966588  0.88637323  0.54259283    -0.82300
H83         H  0.43119251  0.99502991  0.57533255     0.18200
N84         N  0.44955273  0.05836767  0.53331126    -0.80900
H85         H  0.01616400  0.88218560  0.52278373     0.33900
H86         H  0.51443073  0.88213777  0.57064560     0.38400
H87         H  0.43191698  0.06292654  0.55099283     0.33800
H88         H  0.47176395  0.07744760  0.54435278     0.30500
H89         H  0.08516792  0.03490370  0.52787842     0.33800
H90         H  0.05276814  0.03819958  0.55164303     0.30500
H91         H  0.46314927  0.12754865  0.40167392     0.38400
H92         H  0.43597191  0.08530196  0.39823693     0.33900
C93         C  0.31202642  0.60874229  0.52902171    -0.19900
C94         C  0.29794641  0.64315062  0.54646534     0.36400
C95         C  0.31801059  0.68070366  0.55578986    -0.25800
C96         C  0.35188246  0.68474470  0.54837390     0.02800
C97         C  0.36610750  0.65051436  0.53118665     0.27600
C98         C  0.34616305  0.61278535  0.52193841    -0.25000
N99         N  0.26363943  0.63975265  0.55527204    -0.82400
H100        H  0.30737593  0.70692354  0.56942273     0.13400
C101        C  0.37200728  0.72510165  0.55911254     0.02800
N102        N  0.40050955  0.65446335  0.52273551    -0.80900
H103        H  0.35713739  0.58665684  0.50854587     0.18200
C104        C  0.40470417  0.72419494  0.58619996    -0.25800
C105        C  0.42314937  0.76220360  0.59892705     0.36300
C106        C  0.40834967  0.80186212  0.58454235    -0.19800
C107        C  0.37626251  0.80259278  0.55653268    -0.25000
C108        C  0.35797295  0.76461710  0.54362319     0.27600
H109        H  0.41552298  0.69377870  0.59789120     0.13400
N110        N  0.45681102  0.76076054  0.62633329    -0.82300
H111        H  0.36509004  0.83302815  0.54527857     0.18200
N112        N  0.32505234  0.76593900  0.51502612    -0.80900
H113        H  0.46396907  0.72917869  0.63404464     0.33900
H114        H  0.47609833  0.77257949  0.61299040     0.38400
H115        H  0.31825966  0.79744630  0.50669917     0.33800
H116        H  0.32914791  0.74999164  0.49087910     0.30500
H117        H  0.40715975  0.62645096  0.51011722     0.33800
H118        H  0.39877978  0.67871262  0.50242832     0.30500
H119        H  0.26554143  0.61620686  0.57623584     0.38400
H120        H  0.25698819  0.66817826  0.56726804     0.33900
C121        C  0.20324997  0.38890586  0.47510408    -0.19900
C122        C  0.17603795  0.37669030  0.49311931     0.36400
C123        C  0.15587613  0.33987113  0.48048594    -0.25800
C124        C  0.16268199  0.31501771  0.45056966     0.02800
C125        C  0.19075261  0.32615450  0.43364471     0.27600
C126        C  0.21083398  0.36302509  0.44612084    -0.25000
N127        N  0.16926102  0.40142674  0.52435054    -0.82400
H128        H  0.13458642  0.33063412  0.49374381     0.13400
C129        C  0.13990297  0.27761113  0.43683393     0.02800
N130        N  0.19845012  0.30013024  0.40364101    -0.80900
H131        H  0.23192201  0.37218396  0.43253676     0.18200
C132        C  0.11427564  0.28049561  0.40222847    -0.25800
C133        C  0.09184893  0.24582022  0.38835975     0.36300
C134        C  0.09591742  0.20705864  0.40910830    -0.19800
C135        C  0.12161768  0.20448908  0.44391084    -0.25000
C136        C  0.14353909  0.23946301  0.45803811     0.27600
H137        H  0.11144618  0.31019564  0.38634063     0.13400
N138        N  0.06451316  0.25015119  0.35379988    -0.82300
H139        H  0.12491061  0.17486489  0.45990946     0.18200
N140        N  0.16956292  0.23645661  0.49373006    -0.80900
H141        H  0.06509752  0.28063485  0.34211718     0.33900
H142        H  0.03994620  0.24733555  0.36103115     0.38400
H143        H  0.16867274  0.20632773  0.50599626     0.33800
H144        H  0.19471473  0.23922397  0.48789462     0.30500
H145        H  0.21977874  0.31284616  0.39403565     0.33800
H146        H  0.20673645  0.27018475  0.41530355     0.30500
H147        H  0.19195950  0.39954293  0.54679685     0.38400
H148        H  0.14842208  0.38807171  0.53440319     0.33900
C149        C  0.19683306  0.58910428  0.19329192    -0.19900
C150        C  0.18535727  0.54915197  0.20381267     0.36400
C151        C  0.19307011  0.53719921  0.24241045    -0.25800
C152        C  0.21218810  0.56454365  0.27068064     0.02800
C153        C  0.22331692  0.60478162  0.26042061     0.27600
C154        C  0.21544653  0.61676305  0.22172912    -0.25000
N155        N  0.16534920  0.52101107  0.17538276    -0.82400
H156        H  0.18421041  0.50643060  0.25036295     0.13400
C157        C  0.22014670  0.55092746  0.31108033     0.02800
N158        N  0.24267353  0.63309322  0.28936510    -0.80900
H159        H  0.22427384  0.64747463  0.21361801     0.18200
C160        C  0.25456052  0.53710065  0.32864000    -0.25800
C161        C  0.26337313  0.52465858  0.36724228     0.36300
C162        C  0.23716204  0.52707047  0.38892443    -0.19800
C163        C  0.20254573  0.54058971  0.37080261    -0.25000
C164        C  0.19380759  0.55248364  0.33213971     0.27600
H165        H  0.27456975  0.53590126  0.31201762     0.13400
N166        N  0.29892015  0.51039493  0.38437582    -0.82300
H167        H  0.18215356  0.54218658  0.38689422     0.18200
N168        N  0.15838669  0.56651398  0.31418876    -0.80900
H169        H  0.31527330  0.51329397  0.36513559     0.33900
H170        H  0.29759228  0.47770928  0.38983612     0.38400
H171        H  0.14202354  0.56553161  0.33352590     0.33800
H172        H  0.15990573  0.59857894  0.30657636     0.30500
H173        H  0.24913756  0.66132470  0.27707958     0.33800
H174        H  0.22573423  0.64171080  0.30692244     0.30500
H175        H  0.17918226  0.49206312  0.17690055     0.38400
H176        H  0.14092085  0.51504980  0.18211266     0.33900
C177        C  0.21052093  0.56111957  0.06087464    -0.19900
C178        C  0.20252446  0.51706873  0.05728880     0.36400
C179        C  0.21786056  0.49170723  0.03317253    -0.25800
C180        C  0.24013509  0.50976672  0.01189596     0.02800
C181        C  0.24658290  0.55411603  0.01374583     0.27600
C182        C  0.23198124  0.57933676  0.03859403    -0.25000
N183        N  0.17845171  0.49849471  0.07768199    -0.82400
H184        H  0.21224502  0.45776903  0.03065555     0.13400
C185        C  0.25539031  0.48190331  0.98668412     0.02800
N186        N  0.26694600  0.57347888  0.98958262    -0.80900
H187        H  0.23762974  0.61326800  0.04089538     0.18200
C188        C  0.23415256  0.47045628  0.95100225    -0.25800
C189        C  0.24744203  0.44370082  0.92633106     0.36300
C190        C  0.28288507  0.42887078  0.93708622    -0.19800
C191        C  0.30382078  0.43949688  0.97334617    -0.25000
C192        C  0.29025531  0.46551851  0.99849981     0.27600
H193        H  0.20698657  0.48203410  0.94244106     0.13400
N194        N  0.22454196  0.43060677  0.89088502    -0.82300
H195        H  0.33089238  0.42765283  0.98195368     0.18200
N196        N  0.31122104  0.47415293  0.03633698    -0.80900
H197        H  0.21527835  0.45802775  0.87508340     0.33900
H198        H  0.20262243  0.41494569  0.89692154     0.38400
H199        H  0.33583501  0.45858994  0.04085757     0.33800
H200        H  0.31665694  0.50683940  0.03849259     0.30500
H201        H  0.26828224  0.60658003  0.99367344     0.33800
H202        H  0.29304103  0.56211018  0.99782574     0.30500
H203        H  0.15350311  0.51265026  0.06742653     0.38400
H204        H  0.17527856  0.46582477  0.07174562     0.33900
C205        C  0.30629224  0.40372287  0.80766731    -0.19900
C206        C  0.29565950  0.37448398  0.77724533     0.36400
C207        C  0.29166850  0.38836084  0.73952081    -0.25800
C208        C  0.29757537  0.43112707  0.73139401     0.02800
C209        C  0.30806123  0.46058595  0.76155408     0.27600
C210        C  0.31237402  0.44656986  0.79941918    -0.25000
N211        N  0.28766056  0.33101402  0.78439142    -0.82400
H212        H  0.28309981  0.36579495  0.71634136     0.13400
C213        C  0.29147478  0.44472153  0.69103134     0.02800
N214        N  0.31434499  0.50450867  0.75354682    -0.80900
H215        H  0.32078567  0.46911253  0.82262186     0.18200
C216        C  0.26462043  0.47456771  0.67671324    -0.25800
C217        C  0.25655967  0.48662598  0.63807419     0.36300
C218        C  0.27633098  0.46873297  0.61325399    -0.19800
C219        C  0.30353903  0.43912854  0.62803634    -0.25000
C220        C  0.31128985  0.42697463  0.66660942     0.27600
H221        H  0.24931644  0.48776997  0.69568672     0.13400
N222        N  0.22844205  0.51691032  0.62428788    -0.82300
H223        H  0.31885655  0.42519877  0.60942958     0.18200
N224        N  0.33926661  0.39676612  0.68117654    -0.80900
H225        H  0.21850222  0.52901012  0.64680674     0.33900
H226        H  0.20741775  0.50027436  0.60666644     0.38400
H227        H  0.35118863  0.38650602  0.65949285     0.33800
H228        H  0.35894660  0.41269658  0.70127873     0.30500
H229        H  0.32165554  0.52209039  0.77887010     0.33800
H230        H  0.33606767  0.50525663  0.74087432     0.30500
H231        H  0.30419337  0.31119659  0.77270164     0.38400
H232        H  0.26131246  0.32491848  0.77009623     0.33900
C233        C  0.01561589  0.03159067  0.11184893    -0.19900
C234        C  0.49244039  0.01977166  0.13518016     0.36400
C235        C  0.49919507  0.03397674  0.17330482    -0.25800
C236        C  0.02775564  0.05962700  0.18872219     0.02800
C237        C  0.05381528  0.06631735  0.16784517     0.27600
C238        C  0.04762851  0.05201324  0.12979340    -0.25000
N239        N  0.46161002  0.99395370  0.12014727    -0.82400
H240        H  0.48119385  0.02531356  0.19102697     0.13400
C241        C  0.03307026  0.07492934  0.22868300     0.02800
N242        N  0.08629076  0.08805292  0.18531416    -0.80900
H243        H  0.06789712  0.05722807  0.11401079     0.18200
C244        C  0.05779607  0.05417142  0.25789941    -0.25800
C245        C  0.06334828  0.06789635  0.29608261     0.36300
C246        C  0.04378041  0.10298301  0.30498357    -0.19800
C247        C  0.01930833  0.12394723  0.27576443    -0.25000
C248        C  0.01370984  0.11020718  0.23761893     0.27600
H249        H  0.07265662  0.02715647  0.25083187     0.13400
N250        N  0.08866259  0.04642146  0.32587269    -0.82300
H251        H  0.00445903  0.15097230  0.28284084     0.18200
N252        N  0.98853439  0.13190182  0.20785571    -0.80900
H253        H  0.10064710  0.02106078  0.31461941     0.33900
H254        H  0.10890179  0.06816365  0.33717512     0.38400
H255        H  0.97635755  0.15703240  0.21918802     0.33800
H256        H  0.00272410  0.14567455  0.18954414     0.30500
H257        H  0.10279358  0.09041119  0.16619006     0.33800
H258        H  0.07964007  0.11931738  0.19130913     0.30500
H259        H  0.44378355  0.01260666  0.10032207     0.38400
H260        H  0.44849987  0.98634273  0.14156808     0.33900
C261        C  0.45443158  0.90260416  0.69354598    -0.19900
C262        C  0.48736236  0.91982887  0.71338186     0.36400
C263        C  0.49210658  0.93176382  0.75188444    -0.25800
C264        C  0.46547102  0.92471761  0.77185968     0.02800
C265        C  0.43307577  0.90574707  0.75242504     0.27600
C266        C  0.42775172  0.89551916  0.71342806    -0.25000
N267        N  0.51608421  0.92451565  0.69454890    -0.82400
H268        H  0.51686331  0.94662555  0.76643784     0.13400
C269        C  0.47186428  0.93767773  0.81289498     0.02800
N270        N  0.40578237  0.89667179  0.77237681    -0.80900
H271        H  0.40252435  0.88211534  0.69838773     0.18200
C272        C  0.44624442  0.96253109  0.82516458    -0.25800
C273        C  0.45122016  0.97522927  0.86354126     0.36300
C274        C  0.48288208  0.96386610  0.89000907    -0.19800
C275        C  0.00961087  0.93919098  0.87817357    -0.25000
C276        C  0.00412214  0.92479103  0.84021396     0.27600
H277        H  0.42236083  0.97240570  0.80463474     0.13400
N278        N  0.42454661  0.00018840  0.87564322    -0.82300
H279        H  0.03345460  0.92973479  0.89900017     0.18200
N280        N  0.02972383  0.89686368  0.82943860    -0.80900
H281        H  0.40278510  0.00576052  0.85272406     0.33900
H282        H  0.43560667  0.03005521  0.88441062     0.38400
H283        H  0.05108429  0.89094085  0.85271016     0.33800
H284        H  0.01726690  0.86749871  0.82166109     0.30500
H285        H  0.38359158  0.88297993  0.75395978     0.33800
H286        H  0.41588985  0.87377280  0.79323695     0.30500
H287        H  0.52330840  0.89391347  0.68735666     0.38400
H288        H  0.53850632  0.93747720  0.71314834     0.33900
C289        C  0.05155899  0.88510440  0.02887051    -0.19900
C290        C  0.08193244  0.87437722  0.01525292     0.36400
C291        C  0.09975921  0.83568084  0.02664353    -0.25800
C292        C  0.08758808  0.80749790  0.05089163     0.02800
C293        C  0.05693294  0.81762427  0.06392602     0.27600
C294        C  0.03905439  0.85631317  0.05258399    -0.25000
N295        N  0.09425528  0.90245559  0.98954428    -0.82400
H296        H  0.12327008  0.82737913  0.01664362     0.13400
C297        C  0.10787827  0.76794239  0.06323851     0.02800
N298        N  0.04472188  0.78913268  0.08940835    -0.80900
H299        H  0.01573562  0.86447518  0.06298123     0.18200
C300        C  0.13599800  0.76907382  0.09579542    -0.25800
C301        C  0.15627220  0.73229002  0.10836311     0.36300
C302        C  0.14742966  0.69334871  0.08848915    -0.19800
C303        C  0.11960208  0.69265430  0.05537916    -0.25000
C304        C  0.09991538  0.72973536  0.04236055     0.27600
H305        H  0.14235385  0.79893721  0.11113162     0.13400
N306        N  0.18619006  0.73452167  0.14070309    -0.82300
H307        H  0.11296084  0.66295913  0.03986586     0.18200
N308        N  0.07232619  0.72900386  0.00775596    -0.80900
H309        H  0.18910318  0.76546226  0.15194509     0.33900
H310        H  0.20910553  0.72798013  0.13093880     0.38400
H311        H  0.07034551  0.69859426  0.99536325     0.33800
H312        H  0.04809002  0.73495385  0.01493289     0.30500
H313        H  0.02221496  0.80171168  0.09692495     0.33800
H314        H  0.03667710  0.76073208  0.07463601     0.30500
H315        H  0.07448627  0.90369650  0.96415963     0.38400
H316        H  0.11699168  0.88992415  0.98248004     0.33900
C317        C  0.34998277  0.29860365  0.91293441    -0.19900
C318        C  0.34096766  0.26018084  0.89230728     0.36400
C319        C  0.36014252  0.22274511  0.90507334    -0.25800
C320        C  0.38771452  0.22294401  0.93818442     0.02800
C321        C  0.39601019  0.26085181  0.95949282     0.27600
C322        C  0.37708404  0.29844525  0.94658895    -0.25000
N323        N  0.31226560  0.25932354  0.85868275    -0.82400
H324        H  0.35376665  0.19329394  0.88908244     0.13400
C325        C  0.40803659  0.18321929  0.94991587     0.02800
N326        N  0.42366043  0.26089448  0.99403498    -0.80900
H327        H  0.38381608  0.32788549  0.96249402     0.18200
C328        C  0.44367889  0.18099267  0.94767237    -0.25800
C329        C  0.46367124  0.14336474  0.95740122     0.36300
C330        C  0.44767423  0.10745138  0.97047068    -0.19800
C331        C  0.41183789  0.11011700  0.97267834    -0.25000
C332        C  0.39188802  0.14758576  0.96249656     0.27600
H333        H  0.45568925  0.20856692  0.93756204     0.13400
N334        N  0.49984708  0.14158141  0.95356145    -0.82300
H335        H  0.39924703  0.08291744  0.98259382     0.18200
N336        N  0.35533502  0.14974426  0.96500098    -0.80900
H337        H  0.50768926  0.17115243  0.94483922     0.33900
H338        H  0.50067995  0.12002966  0.93157045     0.38400
H339        H  0.34734830  0.12066858  0.97455034     0.33800
H340        H  0.35361957  0.17256781  0.98572894     0.30500
H341        H  0.42654557  0.29138828  0.00627208     0.33800
H342        H  0.41555550  0.24080585  0.01355891     0.30500
H343        H  0.28877348  0.26641427  0.86709182     0.38400
H344        H  0.30918734  0.22864203  0.84683184     0.33900
O345        O  0.99951445  0.92896430  0.01542999    -0.71800
O346        O  0.95115456  0.03415297  0.98880599    -0.72000
O347        O  0.96713383  0.96732115  0.94947055    -0.71900
O348        O  0.98333963  0.99635140  0.05468258    -0.71900
O349        O  0.53239007  0.02747058  0.05167023    -0.71800
O350        O  0.51717830  0.99507805  0.94720889    -0.71800
O351        O  0.50042701  0.06368818  0.98476144    -0.71800
O352        O  0.54890120  0.95884024  0.01365750    -0.72000
V353        V  0.97629086  0.98223255  0.00207889     1.35200
V354        V  0.52378423  0.01071797  0.99943951     1.35200
C355        C  0.53199425  0.92570077  0.01883473     0.77500
C356        C  0.96747673  0.06701006  0.98177159     0.77500
C357        C  0.98989228  0.97627263  0.93056776     0.77400
C358        C  0.51034448  0.01755551  0.07126595     0.77300
C359        C  0.83133885  0.33927309  0.90001581     0.03100
C360        C  0.81587744  0.36401654  0.92437567    -0.13000
C361        C  0.79755454  0.40191862  0.91124034     0.00600
C362        C  0.79487385  0.41487974  0.87334002    -0.11500
C363        C  0.81009444  0.39033634  0.84858432     0.03100
C364        C  0.82903716  0.35313308  0.86250802    -0.11000
H365        H  0.81751505  0.35331363  0.95334451     0.08700
H366        H  0.78084631  0.44413989  0.86305680     0.06200
H367        H  0.84221512  0.33491633  0.84420181     0.06100
C368        C  0.66568035  0.65256366  0.10194134     0.03100
C369        C  0.67806529  0.62631164  0.07611086    -0.13000
C370        C  0.69577117  0.58779824  0.08828128     0.00600
C371        C  0.70149725  0.57583943  0.12678420    -0.11500
C372        C  0.68919885  0.60160289  0.15289820     0.03100
C373        C  0.67122029  0.63981609  0.14030091    -0.11000
H374        H  0.67389198  0.63581228  0.04646196     0.08700
H375        H  0.71613011  0.54679863  0.13660502     0.06200
H376        H  0.66106224  0.65925779  0.16032138     0.06100
O377        O  0.75435055  0.43246105  0.48545886    -0.71800
O378        O  0.80707655  0.53439666  0.51423040    -0.72000
O379        O  0.78865474  0.46745620  0.55207036    -0.71900
O380        O  0.77248202  0.49936913  0.44766223    -0.71900
O381        O  0.72239148  0.52849976  0.45110027    -0.71800
O382        O  0.74219446  0.50384575  0.55708788    -0.71800
O383        O  0.75816664  0.56813979  0.51505687    -0.71800
O384        O  0.70664653  0.46418788  0.49364721    -0.72000
V385        V  0.77974905  0.48405169  0.49995082     1.35200
V386        V  0.73326814  0.51559745  0.50408641     1.35200
C387        C  0.72164863  0.43070803  0.48536249     0.77500
C388        C  0.79161629  0.56881906  0.51942313     0.77500
C389        C  0.76838462  0.48067155  0.57264123     0.77000
C390        C  0.74421272  0.51856090  0.43122250     0.77300
C391        C  0.57412331  0.16888870  0.39533276     0.03100
C392        C  0.55843285  0.14579752  0.42053848    -0.13000
C393        C  0.53795238  0.10927179  0.40816170     0.00600
C394        C  0.53307296  0.09573800  0.37010876    -0.11500
C395        C  0.54889949  0.11815498  0.34475637     0.03100
C396        C  0.56945353  0.15452068  0.35744525    -0.11000
H397        H  0.56199052  0.15632557  0.44987371     0.08700
H398        H  0.51767084  0.06724813  0.36045256     0.06200
H399        H  0.58223074  0.17114662  0.33792417     0.06100
C400        C  0.92631524  0.84247327  0.59919383     0.03100
C401        C  0.93310343  0.85212319  0.63835016    -0.13000
C402        C  0.94829885  0.89144391  0.65230863     0.00600
C403        C  0.95650159  0.92128898  0.62654232    -0.11500
C404        C  0.95048479  0.91180471  0.58745836     0.03100
C405        C  0.93487467  0.87256135  0.57389279    -0.11000
H406        H  0.92645249  0.82902318  0.65795301     0.08700
H407        H  0.96807959  0.95178107  0.63698640     0.06200
H408        H  0.92972603  0.86523467  0.54367335     0.06100
C409        C  0.52358733  0.08378437  0.43575997    -0.19900
C410        C  0.98614374  0.07560390  0.42995009     0.36400
C411        C  0.97405568  0.04959885  0.45616421    -0.25800
C412        C  0.49873959  0.03142522  0.48772741     0.02800
C413        C  0.53540214  0.04033559  0.49372149     0.27600
C414        C  0.54742897  0.06649452  0.46770232    -0.25000
N415        N  0.96140500  0.09323385  0.39740204    -0.82400
H416        H  0.94599603  0.04212100  0.45139910     0.13400
C417        C  0.98496157  0.00191027  0.51328311     0.02800
N418        N  0.56024985  0.02246267  0.52607289    -0.80900
H419        H  0.57564371  0.07281545  0.47191054     0.18200
C420        C  0.49738721  0.95888626  0.51549814    -0.25800
C421        C  0.98564968  0.92949722  0.53879874     0.36300
C422        C  0.96194849  0.94233319  0.56118023    -0.19800
C423        C  0.95023365  0.98501608  0.55960151    -0.25000
C424        C  0.96160181  0.01501376  0.53589230     0.27600
H425        H  0.51591751  0.94885294  0.49877813     0.13400
N426        N  0.99904876  0.88642603  0.54107987    -0.82300
H427        H  0.93226542  0.99491772  0.57701888     0.18200
N428        N  0.94993298  0.05874160  0.53498984    -0.80900
H429        H  0.51733180  0.88195436  0.52492776     0.33900
H430        H  0.01434298  0.88168576  0.56883467     0.38400
H431        H  0.93278460  0.06314055  0.55323124     0.33800
H432        H  0.97233756  0.07761537  0.54575013     0.30500
H433        H  0.58623693  0.03178422  0.52617682     0.33800
H434        H  0.55441056  0.03538250  0.55069157     0.30500
H435        H  0.96208073  0.12648873  0.40036772     0.38400
H436        H  0.93543110  0.08377252  0.39718878     0.33900
C437        C  0.81230888  0.60872744  0.53035639    -0.19900
C438        C  0.79897012  0.64294411  0.54869889     0.36400
C439        C  0.81933569  0.68027899  0.55784766    -0.25800
C440        C  0.85280847  0.68421143  0.54942420     0.02800
C441        C  0.86641172  0.65004711  0.53157344     0.27600
C442        C  0.84613703  0.61256125  0.52244608    -0.25000
N443        N  0.76511373  0.63955782  0.55855218    -0.82400
H444        H  0.80923210  0.70644669  0.57203951     0.13400
C445        C  0.87307475  0.72450272  0.55965390     0.02800
N446        N  0.90048044  0.65384000  0.52230026    -0.80900
H447        H  0.85656239  0.58650523  0.50843797     0.18200
C448        C  0.90597744  0.72367268  0.58637866    -0.25800
C449        C  0.92440006  0.76174545  0.59887976     0.36300
C450        C  0.90936591  0.80133956  0.58460852    -0.19800
C451        C  0.87714927  0.80196379  0.55680872    -0.25000
C452        C  0.85887567  0.76392855  0.54414024     0.27600
H453        H  0.91692904  0.69329388  0.59802647     0.13400
N454        N  0.95823324  0.76045211  0.62600300    -0.82300
H455        H  0.86582579  0.83235531  0.54561560     0.18200
N456        N  0.82575627  0.76509132  0.51584006    -0.80900
H457        H  0.96554682  0.72890048  0.63366898     0.33900
H458        H  0.97731797  0.77237357  0.61242771     0.38400
H459        H  0.81885323  0.79655555  0.50745541     0.33800
H460        H  0.82963210  0.74904537  0.49164692     0.30500
H461        H  0.90667552  0.62587492  0.50927724     0.33800
H462        H  0.89848911  0.67824394  0.50209808     0.30500
H463        H  0.76739329  0.61563148  0.57923493     0.38400
H464        H  0.75902485  0.66780239  0.57124508     0.33900
C465        C  0.70138570  0.39070786  0.47491340    -0.19900
C466        C  0.67338769  0.37899794  0.49196897     0.36400
C467        C  0.65355741  0.34192338  0.47936466    -0.25800
C468        C  0.66144642  0.31635604  0.45043153     0.02800
C469        C  0.69012231  0.32713896  0.43434952     0.27600
C470        C  0.70987546  0.36422796  0.44679099    -0.25000
N471        N  0.66550599  0.40443819  0.52224482    -0.82400
H472        H  0.63174149  0.33298400  0.49192902     0.13400
C473        C  0.63916244  0.27856493  0.43678207     0.02800
N474        N  0.69876006  0.30054240  0.40520156    -0.80900
H475        H  0.73151517  0.37300769  0.43389601     0.18200
C476        C  0.61337092  0.28113734  0.40229398    -0.25800
C477        C  0.59144956  0.24604562  0.38843940     0.36300
C478        C  0.59616832  0.20722781  0.40912031    -0.19800
C479        C  0.62207218  0.20494691  0.44378290    -0.25000
C480        C  0.64353528  0.24031195  0.45786478     0.27600
H481        H  0.61003915  0.31089338  0.38647111     0.13400
N482        N  0.56396385  0.24999470  0.35396004    -0.82300
H483        H  0.62585016  0.17527467  0.45971186     0.18200
N484        N  0.66978099  0.23763081  0.49341899    -0.80900
H485        H  0.56406967  0.28056646  0.34230811     0.33900
H486        H  0.53948761  0.24658102  0.36128362     0.38400
H487        H  0.66943565  0.20737070  0.50561375     0.33800
H488        H  0.69481034  0.24106545  0.48741186     0.30500
H489        H  0.72041725  0.31310135  0.39609614     0.33800
H490        H  0.70691764  0.27084251  0.41749722     0.30500
H491        H  0.68762418  0.40293589  0.54539585     0.38400
H492        H  0.64416240  0.39140397  0.53161376     0.33900
C493        C  0.69592325  0.58907588  0.19361377    -0.19900
C494        C  0.68484181  0.54911413  0.20456994     0.36400
C495        C  0.69248867  0.53779260  0.24332385    -0.25800
C496        C  0.71115735  0.56576954  0.27132523     0.02800
C497        C  0.72190895  0.60599741  0.26061335     0.27600
C498        C  0.71411159  0.61733763  0.22177596    -0.25000
N499        N  0.66527345  0.52033172  0.17643638    -0.82400
H500        H  0.68395177  0.50700351  0.25160875     0.13400
C501        C  0.71924763  0.55268866  0.31188151     0.02800
N502        N  0.74077695  0.63497837  0.28925533    -0.80900
H503        H  0.72262415  0.64806932  0.21334376     0.18200
C504        C  0.75399404  0.54038328  0.32979668    -0.25800
C505        C  0.76288653  0.52811281  0.36843773     0.36300
C506        C  0.73638951  0.52912801  0.38980369    -0.19800
C507        C  0.70149823  0.54136183  0.37140955    -0.25000
C508        C  0.69268571  0.55306692  0.33269067     0.27600
H509        H  0.77419409  0.54014492  0.31339467     0.13400
N510        N  0.79879687  0.51548897  0.38594812    -0.82300
H511        H  0.68092551  0.54194374  0.38730360     0.18200
N512        N  0.65695295  0.56566622  0.31442243    -0.80900
H513        H  0.81527775  0.51952957  0.36696980     0.33900
H514        H  0.79853051  0.48267604  0.39128495     0.38400
H515        H  0.64047225  0.56395065  0.33360763     0.33800
H516        H  0.65761979  0.59779830  0.30666628     0.30500
H517        H  0.74699558  0.66311990  0.27665026     0.33800
H518        H  0.72359694  0.64360976  0.30654311     0.30500
H519        H  0.67944141  0.49158544  0.17841769     0.38400
H520        H  0.64085034  0.51414836  0.18309534     0.33900
C521        C  0.70907897  0.56043394  0.06097688    -0.19900
C522        C  0.70080645  0.51646298  0.05728592     0.36400
C523        C  0.71592945  0.49101051  0.03304613    -0.25800
C524        C  0.73825863  0.50893226  0.01176289     0.02800
C525        C  0.74495000  0.55322294  0.01369554     0.27600
C526        C  0.73054714  0.57852539  0.03864221    -0.25000
N527        N  0.67668702  0.49806842  0.07771440    -0.82400
H528        H  0.71015559  0.45711173  0.03049034     0.13400
C529        C  0.75361516  0.48097447  0.98671140     0.02800
N530        N  0.76544553  0.57242592  0.98958612    -0.80900
H531        H  0.73638155  0.61241042  0.04100335     0.18200
C532        C  0.73272808  0.46995025  0.95074110    -0.25800
C533        C  0.74627807  0.44337772  0.92613097     0.36300
C534        C  0.78163545  0.42827999  0.93727976    -0.19800
C535        C  0.80219021  0.43849917  0.97382683    -0.25000
C536        C  0.78836643  0.46436704  0.99887470     0.27600
H537        H  0.70565694  0.48177425  0.94187396     0.13400
N538        N  0.72372672  0.43079697  0.89031702    -0.82300
H539        H  0.82920122  0.42652651  0.98272802     0.18200
N540        N  0.80899244  0.47275034  0.03691098    -0.80900
H541        H  0.71481666  0.45844270  0.87468854     0.33900
H542        H  0.70155294  0.41520289  0.89581614     0.38400
H543        H  0.83358531  0.45710963  0.04166084     0.33800
H544        H  0.81449370  0.50541920  0.03926867     0.30500
H545        H  0.76700587  0.60550554  0.99376527     0.33800
H546        H  0.79146368  0.56078749  0.99780815     0.30500
H547        H  0.65181746  0.51245806  0.06756543     0.38400
H548        H  0.67329231  0.46543976  0.07168575     0.33900
C549        C  0.80605217  0.40366086  0.80820189    -0.19900
C550        C  0.79575777  0.37431766  0.77780467     0.36400
C551        C  0.79155999  0.38823153  0.74006298    -0.25800
C552        C  0.79698666  0.43111390  0.73188035     0.02800
C553        C  0.80723101  0.46064924  0.76202601     0.27600
C554        C  0.81169896  0.44661323  0.79990622    -0.25000
N555        N  0.78830015  0.33067980  0.78498586    -0.82400
H556        H  0.78319988  0.36558180  0.71691252     0.13400
C557        C  0.79067248  0.44472227  0.69148676     0.02800
N558        N  0.81311808  0.50467407  0.75399320    -0.80900
H559        H  0.81987491  0.46923631  0.82308592     0.18200
C560        C  0.76379794  0.47460463  0.67731270    -0.25800
C561        C  0.75561673  0.48676938  0.63869479     0.36300
C562        C  0.77526906  0.46893327  0.61373435    -0.19800
C563        C  0.80244006  0.43922659  0.62834512    -0.25000
C564        C  0.81032444  0.42697919  0.66689622     0.27600
H565        H  0.74858781  0.48777900  0.69638949     0.13400
N566        N  0.72750817  0.51711432  0.62507483    -0.82300
H567        H  0.81765968  0.42532636  0.60962813     0.18200
N568        N  0.83829651  0.39670178  0.68127278    -0.80900
H569        H  0.71761906  0.52910369  0.64766796     0.33900
H570        H  0.70645363  0.50056293  0.60741500     0.38400
H571        H  0.85007989  0.38644952  0.65947955     0.33800
H572        H  0.85807473  0.41256545  0.70131209     0.30500
H573        H  0.82029167  0.52229533  0.77930593     0.33800
H574        H  0.83481783  0.50574051  0.74129844     0.30500
H575        H  0.80507284  0.31120957  0.77330443     0.38400
H576        H  0.76202994  0.32413440  0.77070627     0.33900
C577        C  0.51608798  0.03120231  0.11205582    -0.19900
C578        C  0.98932097  0.02538732  0.13300470     0.36400
C579        C  0.99590410  0.03919008  0.17124191    -0.25800
C580        C  0.52856848  0.05979525  0.18879674     0.02800
C581        C  0.55203321  0.07151355  0.16604645     0.27600
C582        C  0.54576431  0.05685689  0.12809369    -0.25000
N583        N  0.95586794  0.00562634  0.11572345    -0.82400
H584        H  0.97589232  0.03448360  0.18747598     0.13400
C585        C  0.53388139  0.07525374  0.22869466     0.02800
N586        N  0.58189425  0.09867394  0.18151087    -0.80900
H587        H  0.56398586  0.06609555  0.11082978     0.18200
C588        C  0.56161400  0.05821241  0.25718792    -0.25800
C589        C  0.56707796  0.07196335  0.29535362     0.36300
C590        C  0.54431580  0.10322105  0.30496283    -0.19800
C591        C  0.51675042  0.12043360  0.27647828    -0.25000
C592        C  0.51133139  0.10678171  0.23832547     0.27600
H593        H  0.57886000  0.03401922  0.24958786     0.13400
N594        N  0.59534913  0.05412074  0.32446680    -0.82300
H595        H  0.49946246  0.14456122  0.28410938     0.18200
N596        N  0.48311775  0.12478657  0.20924825    -0.80900
H597        H  0.60939804  0.03113145  0.31277994     0.33900
H598        H  0.61330611  0.07869431  0.33484566     0.38400
H599        H  0.46884449  0.14742717  0.22104391     0.33800
H600        H  0.49481713  0.14120970  0.19009096     0.30500
H601        H  0.59668244  0.10432704  0.16115101     0.33800
H602        H  0.57187330  0.12828823  0.18758628     0.30500
H603        H  0.94188458  0.02667626  0.09499061     0.38400
H604        H  0.94034351  0.00189044  0.13568076     0.33900
C605        C  0.95539340  0.90156649  0.69378535    -0.19900
C606        C  0.98885946  0.91691697  0.71394616     0.36400
C607        C  0.99372852  0.92900861  0.75242821    -0.25800
C608        C  0.96653980  0.92393310  0.77203135     0.02800
C609        C  0.93352159  0.90669438  0.75221326     0.27600
C610        C  0.92819411  0.89629261  0.71324983    -0.25000
N611        N  0.01792424  0.91962177  0.69539636    -0.82400
H612        H  0.01896814  0.94256327  0.76720098     0.13400
C613        C  0.97296867  0.93725542  0.81301503     0.02800
N614        N  0.90557748  0.89957572  0.77172279    -0.80900
H615        H  0.90257304  0.88421169  0.69788408     0.18200
C616        C  0.94787911  0.96339243  0.82489475    -0.25800
C617        C  0.95279153  0.97631548  0.86320612     0.36300
C618        C  0.98398331  0.96408975  0.88998861    -0.19800
C619        C  0.50895511  0.94016722  0.87778985    -0.25000
C620        C  0.50352061  0.92615589  0.83973530     0.27600
H621        H  0.92442700  0.97404205  0.80412978     0.13400
N622        N  0.92648875  0.00226472  0.87495536    -0.82300
H623        H  0.53318802  0.93141979  0.89835269     0.18200
N624        N  0.52973667  0.89962499  0.82846768    -0.80900
H625        H  0.90500886  0.00833199  0.85185259     0.33900
H626        H  0.93812766  0.03183213  0.88378188     0.38400
H627        H  0.55142717  0.89426962  0.85152348     0.33800
H628        H  0.51808985  0.86984449  0.82060558     0.30500
H629        H  0.88299108  0.88706601  0.75304381     0.33800
H630        H  0.91452140  0.87634373  0.79262324     0.30500
H631        H  0.02390846  0.88853962  0.68814679     0.38400
H632        H  0.04077199  0.93128182  0.71422618     0.33900
C633        C  0.55053416  0.88443550  0.02864308    -0.19900
C634        C  0.58064808  0.87332782  0.01471910     0.36400
C635        C  0.59832393  0.83455212  0.02611259    -0.25800
C636        C  0.58621404  0.80665499  0.05062272     0.02800
C637        C  0.55570982  0.81706322  0.06381875     0.27600
C638        C  0.53801664  0.85586361  0.05252496    -0.25000
N639        N  0.59285682  0.90110640  0.98871133    -0.82400
H640        H  0.62168829  0.82598609  0.01594583     0.13400
C641        C  0.60646888  0.76714756  0.06313413     0.02800
N642        N  0.54344964  0.78871207  0.08936990    -0.80900
H643        H  0.51484352  0.86428288  0.06308773     0.18200
C644        C  0.63437711  0.76834678  0.09587942    -0.25800
C645        C  0.65472963  0.73165615  0.10853348     0.36300
C646        C  0.64615044  0.69272603  0.08855374    -0.19800
C647        C  0.61847777  0.69195717  0.05530477    -0.25000
C648        C  0.59872867  0.72895708  0.04220489     0.27600
H649        H  0.64053618  0.79820807  0.11126924     0.13400
N650        N  0.68446756  0.73398693  0.14105737    -0.82300
H651        H  0.61199644  0.66226447  0.03974540     0.18200
N652        N  0.57126555  0.72815412  0.00750052    -0.80900
H653        H  0.68717201  0.76490448  0.15236293     0.33900
H654        H  0.70751651  0.72764796  0.13148228     0.38400
H655        H  0.56942575  0.69775500  0.99509540     0.33800
H656        H  0.54696194  0.73397958  0.01457143     0.30500
H657        H  0.52103671  0.80146673  0.09695885     0.33800
H658        H  0.53523857  0.76034869  0.07460305     0.30500
H659        H  0.57289891  0.90237418  0.96347987     0.38400
H660        H  0.61539408  0.88829243  0.98142479     0.33900
C661        C  0.84983975  0.29872807  0.91361092    -0.19900
C662        C  0.84113007  0.26033657  0.89285846     0.36400
C663        C  0.86041629  0.22299464  0.90565799    -0.25800
C664        C  0.88777994  0.22322146  0.93894922     0.02800
C665        C  0.89575926  0.26108317  0.96040101     0.27600
C666        C  0.87673034  0.29860848  0.94744880    -0.25000
N667        N  0.81260718  0.25940947  0.85907121    -0.82400
H668        H  0.85428065  0.19358159  0.88955428     0.13400
C669        C  0.90819625  0.18355157  0.95066810     0.02800
N670        N  0.92318122  0.26114973  0.99513189    -0.80900
H671        H  0.88321353  0.32802130  0.96346092     0.18200
C672        C  0.94389996  0.18153472  0.94863389    -0.25800
C673        C  0.96388912  0.14384702  0.95802905     0.36300
C674        C  0.94783580  0.10765534  0.97058997    -0.19800
C675        C  0.91195120  0.11013075  0.97264130    -0.25000
C676        C  0.89199569  0.14765232  0.96274921     0.27600
H677        H  0.95594542  0.20930057  0.93887628     0.13400
N678        N  0.00011751  0.14228334  0.95434297    -0.82300
H679        H  0.89932122  0.08273066  0.98218496     0.18200
N680        N  0.85536478  0.14958022  0.96499407    -0.80900
H681        H  0.00799053  0.17201956  0.94600433     0.33900
H682        H  0.00104696  0.12107210  0.93213415     0.38400
H683        H  0.84734025  0.12032902  0.97416580     0.33800
H684        H  0.85348023  0.17210540  0.98590374     0.30500
H685        H  0.92583125  0.29159927  0.00746209     0.33800
H686        H  0.91498887  0.24089003  0.01447593     0.30500
H687        H  0.78898911  0.26626913  0.86730729     0.38400
H688        H  0.80974577  0.22876166  0.84714154     0.33900
loop_ 
_geom_bond_atom_site_label_1 
_geom_bond_atom_site_label_2 
_geom_bond_distance 
_geom_bond_site_symmetry_2 
_ccdc_geom_bond_type 
O1            V9   1.898       .  S
O1          C355   1.264       .  A
O2            V9   1.893   1_546  S
O2           C12   1.264       .  A
O3            V9   1.902   1_556  S
O3           C13   1.264       .  A
O4            V9   1.901       .  S
O4          C358   1.265   1_565  A
O5           V10   1.905   1_554  S
O5           C14   1.267       .  A
O6           V10   1.903   1_565  S
O6          C357   1.264   1_455  A
O7           V10   1.900       .  S
O7          C356   1.265   1_455  A
O8           V10   1.897   1_564  S
O8           C11   1.264       .  A
V9          V354   2.085   1_564  T
V10         V353   2.085   1_446  T
C11         O345   1.264   1_455  A
C11         C289   1.478       .  S
C12         O351   1.265       .  A
C12         C330   1.486       .  S
C13         O350   1.264       .  A
C13         C274   1.475       .  S
C14         O348   1.265   1_445  A
C14         C233   1.495       .  S
C15         C317   1.481       .  S
C15          C16   1.403       .  A
C15          C20   1.402       .  A
C16          C17   1.404       .  A
C16          H21   1.084       .  S
C17         C190   1.484       .  S
C17          C18   1.405       .  A
C18          C19   1.404       .  A
C18          H22   1.083       .  S
C19         C205   1.486       .  S
C19          C20   1.403       .  A
C20          H23   1.083       .  S
C24         C302   1.486       .  S
C24          C25   1.405       .  A
C24          C29   1.406       .  A
C25          C26   1.403       .  A
C25          H30   1.084       .  S
C26         C177   1.482       .  S
C26          C27   1.403       .  A
C27          C28   1.402       .  A
C27          H31   1.084       .  S
C28         C149   1.481       .  S
C28          C29   1.403       .  A
C29          H32   1.084       .  S
O33          V41   1.901       .  S
O33          C43   1.265       .  A
O34          V41   1.903       .  S
O34          C44   1.266       .  A
O35          V41   1.900       .  S
O35          C45   1.266       .  A
O36          V41   1.900       .  S
O36          C46   1.264       .  A
O37          V42   1.899       .  S
O37          C46   1.266       .  A
O38          V42   1.895       .  S
O38          C45   1.263       .  A
O39          V42   1.900       .  S
O39          C44   1.265       .  A
O40          V42   1.900       .  S
O40          C43   1.264       .  A
V41          V42   2.083       .  T
C43         C121   1.478       .  S
C44          C93   1.488       .  S
C45         C218   1.487       .  S
C46         C162   1.489       .  S
C47         C134   1.489       .  S
C47          C48   1.406       .  A
C47          C52   1.407       .  A
C48          C49   1.403       .  A
C48          H53   1.084       .  S
C49          C65   1.482       .  S
C49          C50   1.404       .  A
C50          C51   1.402       .  A
C50          H54   1.084       .  S
C51         C246   1.479       .  S
C51          C52   1.403       .  A
C52          H55   1.083       .  S
C56         C106   1.485       .  S
C56          C57   1.406       .  A
C56          C61   1.404       .  A
C57          C58   1.407       .  A
C57          H62   1.084       .  S
C58         C261   1.490       .  S
C58          C59   1.406       .  A
C59          C60   1.403       .  A
C59          H63   1.083       .  S
C60          C78   1.485       .  S
C60          C61   1.405       .  A
C61          H64   1.084       .  S
C65          C70   1.403       .  A
C65         C410   1.411   1_455  A
C66          C67   1.408       .  A
C66         C409   1.411       .  A
C66          N71   1.437       .  S
C67         C412   1.404       .  A
C67          H72   1.084       .  S
C68         C417   1.484       .  S
C68          C69   1.410   1_655  A
C68         C411   1.404       .  A
C69          C70   1.404       .  A
C69          N74   1.438       .  S
C70          H75   1.084       .  S
N71          H91   1.046       .  S
N71          H92   1.046       .  S
C73         C412   1.486       .  S
C73          C80   1.411       .  A
C73         C420   1.403   1_545  A
N74          H89   1.046       .  S
N74          H90   1.045       .  S
C76         C417   1.402   1_565  A
C76         C421   1.404       .  A
C76          H81   1.084   1_655  S
C77          C78   1.412       .  A
C77         C420   1.405       .  A
C77          N82   1.438       .  S
C78          C79   1.405       .  A
C79          C80   1.408   1_565  A
C79          H83   1.084       .  S
C80          N84   1.437       .  S
N82          H86   1.046       .  S
N82         H429   1.045       .  S
N84          H87   1.046       .  S
N84          H88   1.046       .  S
H85         N426   1.045   1_455  S
C93          C94   1.416       .  A
C93          C98   1.407       .  A
C94          C95   1.406       .  A
C94          N99   1.438       .  S
C95          C96   1.402       .  A
C95         H100   1.084       .  S
C96         C101   1.487       .  S
C96          C97   1.410       .  A
C97          C98   1.408       .  A
C97         N102   1.438       .  S
C98         H103   1.083       .  S
N99         H119   1.046       .  S
N99         H120   1.046       .  S
C101        C104   1.404       .  A
C101        C108   1.411       .  A
N102        H117   1.046       .  S
N102        H118   1.046       .  S
C104        C105   1.408       .  A
C104        H109   1.084       .  S
C105        C106   1.412       .  A
C105        N110   1.438       .  S
C106        C107   1.403       .  A
C107        C108   1.406       .  A
C107        H111   1.084       .  S
C108        N112   1.438       .  S
N110        H113   1.046       .  S
N110        H114   1.046       .  S
N112        H115   1.046       .  S
N112        H116   1.046       .  S
C121        C122   1.413       .  A
C121        C126   1.404       .  A
C122        C123   1.407       .  A
C122        N127   1.438       .  S
C123        C124   1.401       .  A
C123        H128   1.084       .  S
C124        C129   1.480       .  S
C124        C125   1.408       .  A
C125        C126   1.405       .  A
C125        N130   1.437       .  S
C126        H131   1.084       .  S
N127        H147   1.046       .  S
N127        H148   1.046       .  S
C129        C132   1.401       .  A
C129        C136   1.407       .  A
N130        H145   1.046       .  S
N130        H146   1.046       .  S
C132        C133   1.407       .  A
C132        H137   1.084       .  S
C133        C134   1.414       .  A
C133        N138   1.438       .  S
C134        C135   1.407       .  A
C135        C136   1.406       .  A
C135        H139   1.083       .  S
C136        N140   1.438       .  S
N138        H141   1.045       .  S
N138        H142   1.046       .  S
N140        H143   1.046       .  S
N140        H144   1.045       .  S
C149        C150   1.409       .  A
C149        C154   1.404       .  A
C150        C151   1.403       .  A
C150        N155   1.432       .  S
C151        C152   1.401       .  A
C151        H156   1.084       .  S
C152        C157   1.478       .  S
C152        C153   1.409       .  A
C153        C154   1.406       .  A
C153        N158   1.438       .  S
C154        H159   1.084       .  S
N155        H175   1.045       .  S
N155        H176   1.046       .  S
C157        C160   1.400       .  A
C157        C164   1.406       .  A
N158        H173   1.045       .  S
N158        H174   1.046       .  S
C160        C161   1.407       .  A
C160        H165   1.084       .  S
C161        C162   1.418       .  A
C161        N166   1.438       .  S
C162        C163   1.408       .  A
C163        C164   1.404       .  A
C163        H167   1.083       .  S
C164        N168   1.438       .  S
N166        H169   1.046       .  S
N166        H170   1.045       .  S
N168        H171   1.045       .  S
N168        H172   1.046       .  S
C177        C178   1.412       .  A
C177        C182   1.405       .  A
C178        C179   1.404       .  A
C178        N183   1.438       .  S
C179        C180   1.400       .  A
C179        H184   1.084       .  S
C180        C185   1.476   1_554  S
C180        C181   1.409       .  A
C181        C182   1.405       .  A
C181        N186   1.438   1_554  S
C182        H187   1.084       .  S
N183        H203   1.046       .  S
N183        H204   1.046       .  S
C185        C188   1.400       .  A
C185        C192   1.410       .  A
N186        H201   1.046       .  S
N186        H202   1.044       .  S
C188        C189   1.401       .  A
C188        H193   1.084       .  S
C189        C190   1.411       .  A
C189        N194   1.432       .  S
C190        C191   1.406       .  A
C191        C192   1.406       .  A
C191        H195   1.084       .  S
C192        N196   1.438   1_556  S
N194        H197   1.045       .  S
N194        H198   1.046       .  S
N196        H199   1.046       .  S
N196        H200   1.044       .  S
C205        C206   1.412       .  A
C205        C210   1.406       .  A
C206        C207   1.401       .  A
C206        N211   1.433       .  S
C207        C208   1.401       .  A
C207        H212   1.084       .  S
C208        C213   1.480       .  S
C208        C209   1.409       .  A
C209        C210   1.405       .  A
C209        N214   1.438       .  S
C210        H215   1.083       .  S
N211        H231   1.046       .  S
N211        H232   1.046       .  S
C213        C216   1.400       .  A
C213        C220   1.407       .  A
N214        H229   1.045       .  S
N214        H230   1.046       .  S
C216        C217   1.405       .  A
C216        H221   1.084       .  S
C217        C218   1.419       .  A
C217        N222   1.438       .  S
C218        C219   1.407       .  A
C219        C220   1.404       .  A
C219        H223   1.083       .  S
C220        N224   1.438       .  S
N222        H225   1.046       .  S
N222        H226   1.046       .  S
N224        H227   1.045       .  S
N224        H228   1.046       .  S
C233        C238   1.409       .  A
C233        C578   1.420   1_455  A
C234        C235   1.408       .  A
C234        C577   1.420       .  A
C234        N239   1.438   1_545  S
C235        C580   1.400       .  A
C235        H240   1.084       .  S
C236        C241   1.484       .  S
C236        C237   1.407       .  A
C236        C579   1.400   1_455  A
C237        C238   1.407       .  A
C237        N242   1.438       .  S
C238        H243   1.083       .  S
N239        H259   1.046   1_565  S
N239        H260   1.046       .  S
C241        C244   1.403       .  A
C241        C248   1.410       .  A
N242        H257   1.045       .  S
N242        H258   1.046       .  S
C244        C245   1.408       .  A
C244        H249   1.084       .  S
C245        C246   1.410       .  A
C245        N250   1.437       .  S
C246        C247   1.401       .  A
C247        C248   1.407       .  A
C247        H251   1.084       .  S
C248        N252   1.437   1_455  S
N250        H253   1.046       .  S
N250        H254   1.046       .  S
N252        H255   1.046       .  S
N252        H256   1.046   1_655  S
C261        C262   1.413       .  A
C261        C266   1.405       .  A
C262        C263   1.406       .  A
C262        N267   1.438       .  S
C263        C264   1.405       .  A
C263        H268   1.083       .  S
C264        C269   1.496       .  S
C264        C265   1.415       .  A
C265        C266   1.408       .  A
C265        N270   1.438       .  S
C266        H271   1.083       .  S
N267        H287   1.046       .  S
N267        H288   1.046       .  S
C269        C272   1.407       .  A
C269        C620   1.416       .  A
N270        H285   1.046       .  S
N270        H286   1.045       .  S
C272        C273   1.407       .  A
C272        H277   1.083       .  S
C273        C274   1.409       .  A
C273        N278   1.438   1_565  S
C274        C619   1.401       .  A
C275        C276   1.407       .  A
C275        C618   1.400   1_455  A
C275        H279   1.084       .  S
C276        C613   1.417   1_455  A
C276        N280   1.438       .  S
N278        H281   1.046       .  S
N278        H282   1.046       .  S
N280        H283   1.046       .  S
N280        H284   1.045       .  S
C289        C290   1.414       .  A
C289        C294   1.405       .  A
C290        C291   1.405       .  A
C290        N295   1.438   1_554  S
C291        C292   1.400       .  A
C291        H296   1.084       .  S
C292        C297   1.475       .  S
C292        C293   1.408       .  A
C293        C294   1.405       .  A
C293        N298   1.438       .  S
C294        H299   1.084       .  S
N295        H315   1.046       .  S
N295        H316   1.046       .  S
C297        C300   1.400       .  A
C297        C304   1.407       .  A
N298        H313   1.045       .  S
N298        H314   1.045       .  S
C300        C301   1.405       .  A
C300        H305   1.084       .  S
C301        C302   1.414       .  A
C301        N306   1.438       .  S
C302        C303   1.406       .  A
C303        C304   1.405       .  A
C303        H307   1.083       .  S
C304        N308   1.438       .  S
N306        H309   1.045       .  S
N306        H310   1.046       .  S
N308        H311   1.046   1_554  S
N308        H312   1.045       .  S
C317        C318   1.413       .  A
C317        C322   1.404       .  A
C318        C319   1.403       .  A
C318        N323   1.438       .  S
C319        C320   1.401       .  A
C319        H324   1.084       .  S
C320        C325   1.477       .  S
C320        C321   1.408       .  A
C321        C322   1.404       .  A
C321        N326   1.437       .  S
C322        H327   1.084       .  S
N323        H343   1.045       .  S
N323        H344   1.046       .  S
C325        C328   1.400       .  A
C325        C332   1.406       .  A
N326        H341   1.046   1_556  S
N326        H342   1.046   1_556  S
C328        C329   1.405       .  A
C328        H333   1.084       .  S
C329        C330   1.417       .  A
C329        N334   1.438       .  S
C330        C331   1.408       .  A
C331        C332   1.402       .  A
C331        H335   1.083       .  S
C332        N336   1.438       .  S
N334        H337   1.046       .  S
N334        H338   1.046       .  S
N336        H339   1.046       .  S
N336        H340   1.046       .  S
O345        V353   1.899       .  S
O346        V353   1.894   1_546  S
O346        C356   1.264       .  A
O347        V353   1.902   1_556  S
O347        C357   1.264       .  A
O348        V353   1.901       .  S
O349        V354   1.905   1_554  S
O349        C358   1.267       .  A
O350        V354   1.902   1_565  S
O351        V354   1.900       .  S
O352        V354   1.897   1_564  S
O352        C355   1.264       .  A
C355        C633   1.477       .  S
C356        C674   1.486       .  S
C357        C618   1.475       .  S
C358        C577   1.495       .  S
C359        C661   1.481       .  S
C359        C360   1.403       .  A
C359        C364   1.402       .  A
C360        C361   1.404       .  A
C360        H365   1.084       .  S
C361        C534   1.485       .  S
C361        C362   1.405       .  A
C362        C363   1.404       .  A
C362        H366   1.083       .  S
C363        C549   1.486       .  S
C363        C364   1.403       .  A
C364        H367   1.083       .  S
C368        C646   1.486       .  S
C368        C369   1.405       .  A
C368        C373   1.406       .  A
C369        C370   1.403       .  A
C369        H374   1.084       .  S
C370        C521   1.482       .  S
C370        C371   1.403       .  A
C371        C372   1.402       .  A
C371        H375   1.084       .  S
C372        C493   1.481       .  S
C372        C373   1.403       .  A
C373        H376   1.084       .  S
O377        V385   1.899       .  S
O377        C387   1.264       .  A
O378        V385   1.901       .  S
O378        C388   1.265       .  A
O379        V385   1.900       .  S
O379        C389   1.266       .  A
O380        V385   1.900       .  S
O380        C390   1.264       .  A
O381        V386   1.899       .  S
O381        C390   1.265       .  A
O382        V386   1.895       .  S
O382        C389   1.263       .  A
O383        V386   1.901       .  S
O383        C388   1.265       .  A
O384        V386   1.901       .  S
O384        C387   1.265       .  A
V385        V386   2.083       .  T
C387        C465   1.479       .  S
C388        C437   1.487       .  S
C389        C562   1.487       .  S
C390        C506   1.488       .  S
C391        C478   1.489       .  S
C391        C392   1.406       .  A
C391        C396   1.407       .  A
C392        C393   1.403       .  A
C392        H397   1.084       .  S
C393        C409   1.482       .  S
C393        C394   1.404       .  A
C394        C395   1.402       .  A
C394        H398   1.084       .  S
C395        C590   1.478       .  S
C395        C396   1.403       .  A
C396        H399   1.084       .  S
C400        C450   1.484       .  S
C400        C401   1.405       .  A
C400        C405   1.404       .  A
C401        C402   1.405       .  A
C401        H406   1.084       .  S
C402        C605   1.488       .  S
C402        C403   1.406       .  A
C403        C404   1.403       .  A
C403        H407   1.084       .  S
C404        C422   1.485       .  S
C404        C405   1.405       .  A
C405        H408   1.084       .  S
C409        C414   1.403       .  A
C410        C411   1.408       .  A
C410        N415   1.437       .  S
C411        H416   1.084       .  S
C412        C413   1.411       .  A
C413        C414   1.405       .  A
C413        N418   1.438       .  S
C414        H419   1.084       .  S
N415        H435   1.046       .  S
N415        H436   1.046       .  S
C417        C424   1.410       .  A
N418        H433   1.046       .  S
N418        H434   1.045       .  S
C420        H425   1.084       .  S
C421        C422   1.412       .  A
C421        N426   1.438       .  S
C422        C423   1.406       .  A
C423        C424   1.408   1_565  A
C423        H427   1.084       .  S
C424        N428   1.437       .  S
N426        H430   1.046   1_655  S
N428        H431   1.046       .  S
N428        H432   1.046       .  S
C437        C438   1.415       .  A
C437        C442   1.407       .  A
C438        C439   1.405       .  A
C438        N443   1.438       .  S
C439        C440   1.402       .  A
C439        H444   1.084       .  S
C440        C445   1.486       .  S
C440        C441   1.409       .  A
C441        C442   1.407       .  A
C441        N446   1.438       .  S
C442        H447   1.083       .  S
N443        H463   1.046       .  S
N443        H464   1.046       .  S
C445        C448   1.404       .  A
C445        C452   1.410       .  A
N446        H461   1.046       .  S
N446        H462   1.046       .  S
C448        C449   1.408       .  A
C448        H453   1.084       .  S
C449        C450   1.412       .  A
C449        N454   1.438       .  S
C450        C451   1.403       .  A
C451        C452   1.405       .  A
C451        H455   1.084       .  S
C452        N456   1.438       .  S
N454        H457   1.046       .  S
N454        H458   1.046       .  S
N456        H459   1.046       .  S
N456        H460   1.046       .  S
C465        C466   1.413       .  A
C465        C470   1.404       .  A
C466        C467   1.407       .  A
C466        N471   1.438       .  S
C467        C468   1.401       .  A
C467        H472   1.084       .  S
C468        C473   1.479       .  S
C468        C469   1.408       .  A
C469        C470   1.405       .  A
C469        N474   1.437       .  S
C470        H475   1.084       .  S
N471        H491   1.046       .  S
N471        H492   1.046       .  S
C473        C476   1.401       .  A
C473        C480   1.407       .  A
N474        H489   1.046       .  S
N474        H490   1.046       .  S
C476        C477   1.406       .  A
C476        H481   1.084       .  S
C477        C478   1.415       .  A
C477        N482   1.438       .  S
C478        C479   1.407       .  A
C479        C480   1.406       .  A
C479        H483   1.083       .  S
C480        N484   1.438       .  S
N482        H485   1.046       .  S
N482        H486   1.046       .  S
N484        H487   1.046       .  S
N484        H488   1.045       .  S
C493        C494   1.409       .  A
C493        C498   1.404       .  A
C494        C495   1.403       .  A
C494        N499   1.432       .  S
C495        C496   1.401       .  A
C495        H500   1.084       .  S
C496        C501   1.478       .  S
C496        C497   1.409       .  A
C497        C498   1.406       .  A
C497        N502   1.438       .  S
C498        H503   1.084       .  S
N499        H519   1.045       .  S
N499        H520   1.046       .  S
C501        C504   1.400       .  A
C501        C508   1.406       .  A
N502        H517   1.045       .  S
N502        H518   1.046       .  S
C504        C505   1.407       .  A
C504        H509   1.084       .  S
C505        C506   1.418       .  A
C505        N510   1.438       .  S
C506        C507   1.408       .  A
C507        C508   1.405       .  A
C507        H511   1.083       .  S
C508        N512   1.438       .  S
N510        H513   1.046       .  S
N510        H514   1.045       .  S
N512        H515   1.045       .  S
N512        H516   1.046       .  S
C521        C522   1.412       .  A
C521        C526   1.405       .  A
C522        C523   1.405       .  A
C522        N527   1.438       .  S
C523        C524   1.400       .  A
C523        H528   1.084       .  S
C524        C529   1.476   1_554  S
C524        C525   1.409       .  A
C525        C526   1.405       .  A
C525        N530   1.438   1_554  S
C526        H531   1.084       .  S
N527        H547   1.046       .  S
N527        H548   1.046       .  S
C529        C532   1.400       .  A
C529        C536   1.409       .  A
N530        H545   1.046       .  S
N530        H546   1.044       .  S
C532        C533   1.402       .  A
C532        H537   1.084       .  S
C533        C534   1.411       .  A
C533        N538   1.432       .  S
C534        C535   1.406       .  A
C535        C536   1.406       .  A
C535        H539   1.084       .  S
C536        N540   1.438   1_556  S
N538        H541   1.045       .  S
N538        H542   1.046       .  S
N540        H543   1.046       .  S
N540        H544   1.044       .  S
C549        C550   1.412       .  A
C549        C554   1.406       .  A
C550        C551   1.401       .  A
C550        N555   1.433       .  S
C551        C552   1.401       .  A
C551        H556   1.084       .  S
C552        C557   1.481       .  S
C552        C553   1.410       .  A
C553        C554   1.405       .  A
C553        N558   1.438       .  S
C554        H559   1.083       .  S
N555        H575   1.046       .  S
N555        H576   1.046       .  S
C557        C560   1.400       .  A
C557        C564   1.408       .  A
N558        H573   1.045       .  S
N558        H574   1.046       .  S
C560        C561   1.405       .  A
C560        H565   1.084       .  S
C561        C562   1.419       .  A
C561        N566   1.438       .  S
C562        C563   1.407       .  A
C563        C564   1.404       .  A
C563        H567   1.083       .  S
C564        N568   1.438       .  S
N566        H569   1.046       .  S
N566        H570   1.046       .  S
N568        H571   1.045       .  S
N568        H572   1.046       .  S
C577        C582   1.409       .  A
C578        C579   1.408       .  A
C578        N583   1.438       .  S
C579        H584   1.084       .  S
C580        C585   1.484       .  S
C580        C581   1.407       .  A
C581        C582   1.407       .  A
C581        N586   1.438       .  S
C582        H587   1.083       .  S
N583        H603   1.046       .  S
N583        H604   1.046       .  S
C585        C588   1.403       .  A
C585        C592   1.410       .  A
N586        H601   1.046       .  S
N586        H602   1.046       .  S
C588        C589   1.408       .  A
C588        H593   1.084       .  S
C589        C590   1.410       .  A
C589        N594   1.437       .  S
C590        C591   1.401       .  A
C591        C592   1.407       .  A
C591        H595   1.084       .  S
C592        N596   1.437       .  S
N594        H597   1.046       .  S
N594        H598   1.045       .  S
N596        H599   1.046       .  S
N596        H600   1.046       .  S
C605        C606   1.412       .  A
C605        C610   1.404       .  A
C606        C607   1.406       .  A
C606        N611   1.438   1_655  S
C607        C608   1.406       .  A
C607        H612   1.083   1_655  S
C608        C613   1.497       .  S
C608        C609   1.416       .  A
C609        C610   1.408       .  A
C609        N614   1.438       .  S
C610        H615   1.084       .  S
N611        H631   1.046       .  S
N611        H632   1.045       .  S
C613        C616   1.408       .  A
N614        H629   1.046       .  S
N614        H630   1.045       .  S
C616        C617   1.407       .  A
C616        H621   1.083       .  S
C617        C618   1.408       .  A
C617        N622   1.438   1_565  S
C619        C620   1.407       .  A
C619        H623   1.084       .  S
C620        N624   1.438       .  S
N622        H625   1.046       .  S
N622        H626   1.046       .  S
N624        H627   1.046       .  S
N624        H628   1.045       .  S
C633        C634   1.413       .  A
C633        C638   1.405       .  A
C634        C635   1.404       .  A
C634        N639   1.438   1_554  S
C635        C636   1.399       .  A
C635        H640   1.084       .  S
C636        C641   1.475       .  S
C636        C637   1.408       .  A
C637        C638   1.405       .  A
C637        N642   1.438       .  S
C638        H643   1.084       .  S
N639        H659   1.046       .  S
N639        H660   1.046       .  S
C641        C644   1.400       .  A
C641        C648   1.407       .  A
N642        H657   1.045       .  S
N642        H658   1.045       .  S
C644        C645   1.405       .  A
C644        H649   1.084       .  S
C645        C646   1.414       .  A
C645        N650   1.438       .  S
C646        C647   1.406       .  A
C647        C648   1.405       .  A
C647        H651   1.083       .  S
C648        N652   1.438       .  S
N650        H653   1.045       .  S
N650        H654   1.046       .  S
N652        H655   1.046   1_554  S
N652        H656   1.045       .  S
C661        C662   1.413       .  A
C661        C666   1.404       .  A
C662        C663   1.403       .  A
C662        N667   1.438       .  S
C663        C664   1.401       .  A
C663        H668   1.084       .  S
C664        C669   1.477       .  S
C664        C665   1.408       .  A
C665        C666   1.405       .  A
C665        N670   1.437       .  S
C666        H671   1.084       .  S
N667        H687   1.045       .  S
N667        H688   1.046       .  S
C669        C672   1.400       .  A
C669        C676   1.406       .  A
N670        H685   1.046   1_556  S
N670        H686   1.046   1_556  S
C672        C673   1.405       .  A
C672        H677   1.084       .  S
C673        C674   1.417       .  A
C673        N678   1.438   1_655  S
C674        C675   1.408       .  A
C675        C676   1.403       .  A
C675        H679   1.083       .  S
C676        N680   1.438       .  S
N678        H681   1.046       .  S
N678        H682   1.046       .  S
N680        H683   1.046       .  S
N680        H684   1.045       .  S
