geometry optimzed in LAMMPS
_audit_creation_date              2020-11-30 
_audit_creation_method            'lammps2cif' 
_symmetry_space_group_name_H-M    'P1' 
_symmetry_Int_Tables_number       1 
_symmetry_cell_setting            triclinic 
loop_ 
_symmetry_equiv_pos_as_xyz 
  x,y,z 
_cell_length_a                    28.39894703 
_cell_length_b                    28.590554321254235 
_cell_length_c                    28.463191253577143 
_cell_angle_alpha                 90.38741216906156 
_cell_angle_beta                  89.68483984230183 
_cell_angle_gamma                 89.83545461572935 
loop_ 
_atom_site_label 
_atom_site_type_symbol 
_atom_site_fract_x 
_atom_site_fract_y 
_atom_site_fract_z 
_atom_site_charge 
C1          C  0.94816426  0.00614701  0.00085549     0.02800
C2          C  0.97342237  0.03613693  0.97202194     0.02800
C3          C  0.01972584  0.02506254  0.96066199     0.02800
C4          C  0.04253727  0.98850652  0.98362695     0.02800
C5          C  0.01950498  0.96530801  0.02019786     0.02800
C6          C  0.97227959  0.97568161  0.03010858     0.02800
O7          O  0.05519500  0.15573262  0.86052596    -0.79600
O8          O  0.93743837  0.35189225  0.86681317    -0.79700
O9          O  0.93814666  0.24014922  0.79500001    -0.79700
O10         O  0.05673931  0.27164908  0.79555976    -0.79600
O11         O  0.89355318  0.27368116  0.84984867    -0.79700
O12         O  0.09873588  0.23569310  0.84998835    -0.79700
O13         O  0.97870350  0.33320092  0.80476849    -0.79600
O14         O  0.01627367  0.17849287  0.79935027    -0.79700
C15         C  0.04720655  0.15136922  0.81656924     1.10000
C16         C  0.94775184  0.35934734  0.82393005     1.09900
C17         C  0.90306340  0.26494455  0.80679844     1.10100
C18         C  0.09107794  0.24611691  0.80729606     1.09900
O19         O  0.07630121  0.27014516  0.94248718    -0.79600
O20         O  0.91692962  0.23580108  0.94225383    -0.79700
O21         O  0.97715120  0.14973138  0.89164874    -0.79700
O22         O  0.01518205  0.35552696  0.89806061    -0.79600
O23         O  0.97948104  0.31189226  0.95143283    -0.79700
O24         O  0.01177753  0.19118991  0.94777361    -0.79700
O25         O  0.09457063  0.31273046  0.88159888    -0.79600
O26         O  0.89875508  0.19593172  0.87945401    -0.79700
Co27       Co  0.05440566  0.21696573  0.89995723     1.51500
Co28       Co  0.93783400  0.28939333  0.90188310     1.51700
Co29       Co  0.96128194  0.19662610  0.84209579     1.51600
Co30       Co  0.03236357  0.31226108  0.84551947     1.51500
O31         O  0.99648376  0.25379763  0.87275041    -1.41600
C32         C  0.10256196  0.30148342  0.92400862     1.10000
C33         C  0.89059803  0.20582128  0.92262428     1.10100
C34         C  0.98712711  0.15646355  0.93482854     1.10000
C35         C  0.00490488  0.34647198  0.94072057     1.10000
O36         O  0.85273873  0.05644422  0.15329497    -0.79600
O37         O  0.86565136  0.94221189  0.35032347    -0.79700
O38         O  0.79128922  0.93922787  0.23951624    -0.79700
O39         O  0.78908821  0.05652231  0.27154839    -0.79600
O40         O  0.84806925  0.89738368  0.27214212    -0.79700
O41         O  0.84038453  0.10069189  0.23298061    -0.79700
O42         O  0.80197739  0.98091337  0.33350428    -0.79600
O43         O  0.79274735  0.01604504  0.17720943    -0.79700
C44         C  0.80904932  0.04706827  0.14983283     1.10000
C45         C  0.82251834  0.95087066  0.35896319     1.09900
C46         C  0.80453206  0.90500992  0.26410856     1.10100
C47         C  0.79833068  0.09036013  0.24472412     1.09900
O48         O  0.93595649  0.07925969  0.26541507    -0.79600
O49         O  0.93874293  0.92418692  0.23090324    -0.79700
O50         O  0.88618854  0.98005088  0.14618586    -0.79700
O51         O  0.89472727  0.02086850  0.35367393    -0.79600
O52         O  0.94808187  0.98630704  0.30806593    -0.79700
O53         O  0.94147861  0.01704715  0.18655456    -0.79700
O54         O  0.87548598  0.09801034  0.30903916    -0.79600
O55         O  0.87607444  0.90243355  0.19284724    -0.79700
Co56       Co  0.89254540  0.05777170  0.21349572     1.51500
Co57       Co  0.89920479  0.94325880  0.28642265     1.51700
Co58       Co  0.83728873  0.96325642  0.19459275     1.51600
Co59       Co  0.84075967  0.03530696  0.31109236     1.51500
O60         O  0.86764762  0.99986326  0.25140588    -1.41600
C61         C  0.91830734  0.10502985  0.29765965     1.10000
C62         C  0.91973795  0.89679662  0.20137745     1.10100
C63         C  0.92906693  0.99225081  0.15168423     1.10000
C64         C  0.93746969  0.01045122  0.34403527     1.10000
C65         C  0.95715665  0.98738782  0.48612915     0.02800
C66         C  0.98118750  0.02255682  0.46262535     0.02800
C67         C  0.02647186  0.03447067  0.47685175     0.02800
C68         C  0.04865049  0.00824599  0.51122185     0.02800
C69         C  0.02171920  0.98060845  0.54093907     0.02800
C70         C  0.97701092  0.96684088  0.52596323     0.02800
O71         O  0.06028543  0.84866437  0.62798681    -0.79600
O72         O  0.93761196  0.65535067  0.62756983    -0.79700
O73         O  0.94296118  0.76917451  0.70383195    -0.79700
O74         O  0.05570523  0.73207808  0.69982579    -0.79600
O75         O  0.89717445  0.73483021  0.65074249    -0.79700
O76         O  0.10079088  0.76872091  0.64765847    -0.79700
O77         O  0.97843972  0.67237061  0.68946733    -0.79600
O78         O  0.02180102  0.83061439  0.69165480    -0.79700
C79         C  0.05165329  0.85665988  0.67094805     1.10000
C80         C  0.94773711  0.64685451  0.67003930     1.09900
C81         C  0.90734938  0.74467076  0.69340416     1.10100
C82         C  0.09114437  0.75684032  0.69000235     1.09900
O83         O  0.07855747  0.73133430  0.55349547    -0.79600
O84         O  0.91822539  0.77476410  0.55824027    -0.79700
O85         O  0.98055057  0.85352203  0.60208116    -0.79700
O86         O  0.01550335  0.65150890  0.59474417    -0.79600
O87         O  0.97802029  0.69692115  0.54391764    -0.79700
O88         O  0.01578324  0.81122240  0.54589723    -0.79700
O89         O  0.09629890  0.69113904  0.61541608    -0.79600
O90         O  0.90085686  0.81319404  0.62211902    -0.79700
Co91       Co  0.05772459  0.78592407  0.59438748     1.51500
Co92       Co  0.93864956  0.71920053  0.59572326     1.51700
Co93       Co  0.96527298  0.81051470  0.65414405     1.51600
Co94       Co  0.03266428  0.69268619  0.64922684     1.51500
O95         O  0.99860100  0.75218075  0.62315795    -1.41600
C96         C  0.10461390  0.70066590  0.57269615     1.10000
C97         C  0.89233625  0.80463466  0.57912021     1.10100
C98         C  0.99093542  0.84617428  0.55901756     1.10000
C99         C  0.00318550  0.66151905  0.55278312     1.10000
O100        O  0.15500448  0.87259505  0.06358451    -0.79600
O101        O  0.35017311  0.86605793  0.94061548    -0.79700
O102        O  0.23231301  0.79575767  0.94595401    -0.79700
O103        O  0.27044283  0.79754821  0.05955546    -0.79600
O104        O  0.27008390  0.84600482  0.89994265    -0.79700
O105        O  0.23512906  0.85139737  0.10405174    -0.79700
O106        O  0.33101883  0.80511107  0.98136364    -0.79600
O107        O  0.17185063  0.80952777  0.02410464    -0.79700
C108        C  0.14617178  0.82998464  0.05455715     1.10000
C109        C  0.35694041  0.82328179  0.95006695     1.09900
C110        C  0.25733046  0.80432757  0.91007711     1.10100
C111        C  0.24476393  0.80868059  0.09433172     1.09900
O112        O  0.27478255  0.94342170  0.08046941    -0.79600
O113        O  0.23318483  0.94074045  0.91986517    -0.79700
O114        O  0.15164992  0.90237769  0.98463500    -0.79700
O115        O  0.35512922  0.89872849  0.01819690    -0.79600
O116        O  0.31100180  0.95102136  0.98100982    -0.79700
O117        O  0.19755580  0.95419120  0.02049408    -0.79700
O118        O  0.31401273  0.88112889  0.09904771    -0.79600
O119        O  0.19232537  0.87866949  0.90430321    -0.79700
Co120      Co  0.21947808  0.90439605  0.06108271     1.51500
Co121      Co  0.28720686  0.90047601  0.94146801     1.51700
Co122      Co  0.19298107  0.84736071  0.96858686     1.51600
Co123      Co  0.31182213  0.84635296  0.03579099     1.51500
O124        O  0.25286897  0.87472708  0.00170585    -1.41600
C125        C  0.30481996  0.92405965  0.10675107     1.10000
C126        C  0.20269691  0.92063753  0.89442227     1.10100
C127        C  0.16155279  0.94450710  0.99652141     1.10000
C128        C  0.34589014  0.94094274  0.00659280     1.10000
O129        O  0.97775652  0.83309325  0.19574321    -0.79600
O130        O  0.02066774  0.67361874  0.19302034    -0.79700
O131        O  0.89812908  0.77100574  0.15118455    -0.79700
O132        O  0.10178980  0.73652418  0.15255541    -0.79600
O133        O  0.94226405  0.73451928  0.20395467    -0.79700
O134        O  0.05644453  0.77181657  0.20604536    -0.79700
O135        O  0.06151691  0.65689563  0.13046021    -0.79600
O136        O  0.93871421  0.85088203  0.13280840    -0.79700
C137        C  0.94702489  0.85861245  0.17591860     1.10000
C138        C  0.05150959  0.64808013  0.17296733     1.09900
C139        C  0.90715929  0.75979940  0.19365445     1.10100
C140        C  0.09182420  0.74682530  0.19527172     1.09900
O141        O  0.09796765  0.81478370  0.12303569    -0.79600
O142        O  0.90286790  0.69337507  0.11953735    -0.79700
O143        O  0.98350491  0.81221592  0.04955047    -0.79700
O144        O  0.02023343  0.69814779  0.04758128    -0.79600
O145        O  0.98333295  0.65262735  0.09890290    -0.79700
O146        O  0.01799447  0.85611300  0.10420443    -0.79700
O147        O  0.08039452  0.77552176  0.05997866    -0.79600
O148        O  0.92132335  0.73360424  0.05765992    -0.79700
Co149      Co  0.03378790  0.81291583  0.15651851     1.51500
Co150      Co  0.96614511  0.69452075  0.15333302     1.51700
Co151      Co  0.94147919  0.78805651  0.09839357     1.51600
Co152      Co  0.06002110  0.72058441  0.09844413     1.51500
O153        O  0.00032959  0.75406011  0.12679083    -1.41600
C154        C  0.10642184  0.80547033  0.08004158     1.10000
C155        C  0.89507538  0.70309247  0.07681737     1.10100
C156        C  0.00819790  0.84730307  0.06132865     1.10000
C157        C  0.99537681  0.66267169  0.05675511     1.10000
C158        C  0.26741861  0.79142918  0.22766696     0.02800
C159        C  0.22714858  0.76933617  0.21074351     0.02800
C160        C  0.20970035  0.72976878  0.23329392     0.02800
C161        C  0.23391426  0.71080163  0.27111868     0.02800
C162        C  0.27405587  0.73293942  0.28816321     0.02800
C163        C  0.29100932  0.77304225  0.26617420     0.02800
O164        O  0.17126019  0.69395558  0.51740180    -0.79600
O165        O  0.32914765  0.69284499  0.47976543    -0.79700
O166        O  0.23075412  0.64690797  0.60013424    -0.79700
O167        O  0.27021323  0.64946896  0.39551463    -0.79600
O168        O  0.26666194  0.70089045  0.55738682    -0.79700
O169        O  0.23480195  0.70280518  0.44056302    -0.79700
O170        O  0.34862536  0.63130504  0.43848508    -0.79600
O171        O  0.15160416  0.63177520  0.55650568    -0.79700
C172        C  0.14417313  0.67470303  0.54722348     1.10000
C173        C  0.35524598  0.67402928  0.44849768     1.09900
C174        C  0.24146379  0.68949668  0.59221038     1.10100
C175        C  0.25982371  0.69205038  0.40520643     1.09900
O176        O  0.19215016  0.61936559  0.39934167    -0.79600
O177        O  0.30894474  0.61594604  0.59552529    -0.79700
O178        O  0.19129096  0.54756456  0.51203210    -0.79700
O179        O  0.31145642  0.54697345  0.47950233    -0.79600
O180        O  0.35366718  0.60111507  0.51645628    -0.79700
O181        O  0.14843052  0.60259526  0.47805044    -0.79700
O182        O  0.23206762  0.55663967  0.41661550    -0.79600
O183        O  0.26843877  0.55461864  0.57520064    -0.79700
Co184      Co  0.19269408  0.65393139  0.46269822     1.51500
Co185      Co  0.30880447  0.65218789  0.53351326     1.51700
Co186      Co  0.21439512  0.59575185  0.55514216     1.51600
Co187      Co  0.28647314  0.59648876  0.43852948     1.51500
O188        O  0.25068805  0.62435805  0.49751735    -1.41600
C189        C  0.20140733  0.57650943  0.39096859     1.10000
C190        C  0.29889645  0.57309695  0.60208589     1.10100
C191        C  0.15728117  0.55970078  0.48618823     1.10000
C192        C  0.34658019  0.55865639  0.50456882     1.10000
C193        C  0.26587770  0.70379243  0.72864612     0.02800
C194        C  0.22614715  0.72636485  0.71129134     0.02800
C195        C  0.20844877  0.76590511  0.73411548     0.02800
C196        C  0.23054296  0.78299335  0.77434584     0.02800
C197        C  0.26988962  0.76002772  0.79221478     0.02800
C198        C  0.28854981  0.72136749  0.76832299     0.02800
O199        O  0.40104041  0.80549591  0.88014514    -0.79600
O200        O  0.59719583  0.68793136  0.87764207    -0.79700
O201        O  0.48161337  0.68735831  0.94996104    -0.79700
O202        O  0.51584556  0.80409504  0.95192549    -0.79600
O203        O  0.51820013  0.64438945  0.89561826    -0.79700
O204        O  0.47960972  0.84862301  0.89962163    -0.79700
O205        O  0.57780364  0.72719533  0.94053415    -0.79600
O206        O  0.42005482  0.76522464  0.94175090    -0.79700
C207        C  0.39417273  0.79625215  0.92317700     1.10000
C208        C  0.60476658  0.69764367  0.92058204     1.09900
C209        C  0.50705394  0.65265336  0.93842995     1.10100
C210        C  0.49111437  0.83954198  0.94199240     1.09900
O211        O  0.51878477  0.82764801  0.80609222    -0.79600
O212        O  0.47978677  0.66606699  0.80297212    -0.79700
O213        O  0.39754803  0.72806523  0.84827429    -0.79700
O214        O  0.60023491  0.76588018  0.84803638    -0.79600
O215        O  0.55655612  0.72988973  0.79426521    -0.79700
O216        O  0.44146573  0.76489469  0.79529896    -0.79700
O217        O  0.55840713  0.84514045  0.86880368    -0.79600
O218        O  0.43940246  0.64798245  0.86525236    -0.79700
Co219      Co  0.46411743  0.80567723  0.84574576     1.51500
Co220      Co  0.53400620  0.68813721  0.84340749     1.51700
Co221      Co  0.44048219  0.71106453  0.90068612     1.51600
Co222      Co  0.55711146  0.78157740  0.90154250     1.51500
O223        O  0.49888211  0.74655764  0.87278059    -1.41600
C224        C  0.54888780  0.85374125  0.82617554     1.10000
C225        C  0.44941145  0.63965834  0.82230425     1.10100
C226        C  0.40677799  0.73909157  0.80577825     1.10000
C227        C  0.59102676  0.75567504  0.80526183     1.10000
C228        C  0.77092702  0.23627868  0.78615161     0.02800
C229        C  0.78654326  0.27786637  0.76602927     0.02800
C230        C  0.76560166  0.29451607  0.72521094     0.02800
C231        C  0.73014355  0.26869221  0.70375977     0.02800
C232        C  0.71387232  0.22763915  0.72456574     0.02800
C233        C  0.73492710  0.21075640  0.76510927     0.02800
O234        O  0.87938246  0.40621875  0.80705390    -0.79600
O235        O  0.87959535  0.60039313  0.68680927    -0.79700
O236        O  0.95299537  0.48446874  0.68960233    -0.79700
O237        O  0.95388798  0.52133023  0.80320355    -0.79600
O238        O  0.90061863  0.52102665  0.64487626    -0.79700
O239        O  0.90092828  0.48558820  0.84820569    -0.79700
O240        O  0.94265989  0.58218914  0.72546792    -0.79600
O241        O  0.94220659  0.42332323  0.76710682    -0.79700
C242        C  0.92236993  0.39789520  0.79776781     1.10000
C243        C  0.92261066  0.60811771  0.69555859     1.09900
C244        C  0.94311629  0.50967553  0.65454376     1.10100
C245        C  0.94354290  0.49635776  0.83841315     1.09900
O246        O  0.80804450  0.52522089  0.82763579    -0.79600
O247        O  0.80666021  0.48282090  0.66670129    -0.79700
O248        O  0.84832248  0.40263133  0.72880083    -0.79700
O249        O  0.84948588  0.60456663  0.76548806    -0.79600
O250        O  0.79631772  0.56037031  0.72912877    -0.79700
O251        O  0.79598524  0.44771507  0.76614454    -0.79700
O252        O  0.87129465  0.56407507  0.84482934    -0.79600
O253        O  0.86952112  0.44312532  0.64880121    -0.79700
Co254      Co  0.84674239  0.47000400  0.80626403     1.51500
Co255      Co  0.84649653  0.53726595  0.68784038     1.51700
Co256      Co  0.90258498  0.44428398  0.71245891     1.51600
Co257      Co  0.90359031  0.56213324  0.78080363     1.51500
O258        O  0.87477632  0.50342370  0.74685063    -1.41600
C259        C  0.82846441  0.55516956  0.85352718     1.10000
C260        C  0.82658755  0.45237670  0.64063821     1.10100
C261        C  0.80588881  0.41237389  0.74087234     1.10000
C262        C  0.80675496  0.59503643  0.75502331     1.10000
O263        O  0.98104377  0.16375117  0.30553084    -0.79600
O264        O  0.99111388  0.36530865  0.32484334    -0.79700
O265        O  0.90397173  0.24061110  0.34862751    -0.79700
O266        O  0.10226062  0.26386950  0.35066079    -0.79600
O267        O  0.95581307  0.27503513  0.30020073    -0.79700
O268        O  0.06004737  0.22415670  0.29824089    -0.79700
O269        O  0.05752077  0.33304454  0.34573350    -0.79600
O270        O  0.93425375  0.15274254  0.36578412    -0.79700
C271        C  0.94610407  0.14247207  0.32371054     1.10000
C272        C  0.03593582  0.36568501  0.32329304     1.09900
C273        C  0.91792709  0.25221816  0.30742339     1.10100
C274        C  0.09352052  0.25155506  0.30824967     1.09900
O275        O  0.09577690  0.18677064  0.38597545    -0.79600
O276        O  0.92184876  0.32025175  0.38316016    -0.79700
O277        O  0.97767609  0.18458572  0.45137686    -0.79700
O278        O  0.08625131  0.32571899  0.43206480    -0.79600
O279        O  0.00855705  0.33460067  0.41800082    -0.79700
O280        O  0.01492982  0.14047693  0.39776123    -0.79700
O281        O  0.07515501  0.23247116  0.44477022    -0.79600
O282        O  0.92743554  0.27155047  0.44189475    -0.79700
Co283      Co  0.03554943  0.18285519  0.34704991     1.51500
Co284      Co  0.98612989  0.30360300  0.35506011     1.51700
Co285      Co  0.93997718  0.21447958  0.40184742     1.51600
Co286      Co  0.05320009  0.27997051  0.39812729     1.51500
O287        O  0.00108394  0.23893486  0.37499971    -1.41600
C288        C  0.10228208  0.20095731  0.42813428     1.10000
C289        C  0.90712681  0.30661916  0.42328217     1.10100
C290        C  0.00461871  0.15042922  0.44037913     1.10000
C291        C  0.04605748  0.34391168  0.44220862     1.10000
C292        C  0.26738020  0.21086534  0.27150844     0.02800
C293        C  0.22647302  0.23212922  0.28841435     0.02800
C294        C  0.20826675  0.27136970  0.26603640     0.02800
C295        C  0.23052791  0.28917138  0.22636885     0.02800
C296        C  0.27133200  0.26749975  0.20911552     0.02800
C297        C  0.29034808  0.22905124  0.23239213     0.02800
O298        O  0.16856077  0.30645662  0.97987793    -0.79600
O299        O  0.33082524  0.30275056  0.01857454    -0.79700
O300        O  0.23199553  0.34897950  0.89701733    -0.79700
O301        O  0.26855421  0.34872554  0.10057435    -0.79600
O302        O  0.26664206  0.29447768  0.94030271    -0.79700
O303        O  0.23110932  0.29626627  0.05666123    -0.79700
O304        O  0.34934358  0.36500089  0.05867386    -0.79600
O305        O  0.15224184  0.36862578  0.93964122    -0.79700
C306        C  0.14270286  0.32625816  0.94962178     1.10000
C307        C  0.35723011  0.32208147  0.04914910     1.09900
C308        C  0.24134236  0.30631079  0.90563256     1.10100
C309        C  0.25685552  0.30652193  0.09138937     1.09900
O310        O  0.19059614  0.38100128  0.09701810    -0.79600
O311        O  0.31164021  0.37640654  0.90036242    -0.79700
O312        O  0.19528224  0.45200909  0.98134042    -0.79700
O313        O  0.31085429  0.44915913  0.01600434    -0.79600
O314        O  0.35402116  0.39456672  0.98000330    -0.79700
O315        O  0.14922723  0.40080119  0.01756418    -0.79700
O316        O  0.23210232  0.44201646  0.07871819    -0.79600
O317        O  0.27247435  0.43960926  0.91836151    -0.79700
Co318      Co  0.19109140  0.34668979  0.03376106     1.51500
Co319      Co  0.30959478  0.34283201  0.96383512     1.51700
Co320      Co  0.21682191  0.40154626  0.94022624     1.51600
Co321      Co  0.28632855  0.40061331  0.05748969     1.51500
O322        O  0.25106988  0.37277876  0.99879247    -1.41600
C323        C  0.20052750  0.42365359  0.10458115     1.10000
C324        C  0.30239908  0.41907287  0.89184827     1.10100
C325        C  0.15950501  0.44278805  0.00617981     1.10000
C326        C  0.34554795  0.43737857  0.99027575     1.10000
C327        C  0.22541296  0.26330809  0.78754479     0.02800
C328        C  0.20939824  0.21817341  0.77771071     0.02800
C329        C  0.23827454  0.18797135  0.75284487     0.02800
C330        C  0.26989332  0.20718045  0.72262646     0.02800
C331        C  0.29244430  0.24734180  0.73756112     0.02800
C332        C  0.26839208  0.27785019  0.76803313     0.02800
O333        O  0.59768127  0.31433688  0.60558627    -0.79600
O334        O  0.41443805  0.19218998  0.59886124    -0.79700
O335        O  0.52333774  0.18553860  0.54509025    -0.79700
O336        O  0.46874152  0.29265556  0.54511335    -0.79600
O337        O  0.48438734  0.14773980  0.60149528    -0.79700
O338        O  0.50854107  0.34519376  0.58844445    -0.79700
O339        O  0.38106804  0.25805470  0.57834317    -0.79600
O340        O  0.58662730  0.26492090  0.54761084    -0.79700
C341        C  0.60920658  0.29953416  0.56478980     1.10000
C342        C  0.37972365  0.21360843  0.57924827     1.09900
C343        C  0.49521973  0.15351843  0.55824487     0.98100
C344        C  0.49049325  0.33145443  0.54950573     1.09900
O345        O  0.48066672  0.32663032  0.68465305    -0.79600
O346        O  0.52187673  0.17591728  0.69193566    -0.79700
O347        O  0.60968668  0.23577142  0.64127068    -0.79700
O348        O  0.41783762  0.24440446  0.66839692    -0.79600
O349        O  0.42669227  0.16758345  0.68463872    -0.79700
O350        O  0.56617096  0.27637620  0.69312565    -0.79700
O351        O  0.42886648  0.32926289  0.62861085    -0.79600
O352        O  0.56482467  0.15380258  0.63169358    -0.79700
Co353      Co  0.53612927  0.31138720  0.64271459     1.51500
Co354      Co  0.47139202  0.19839407  0.64757194     1.51700
Co355      Co  0.56670255  0.21281387  0.59162973     1.51600
Co356      Co  0.44487471  0.26401217  0.60308523     1.51500
O357        O  0.51109753  0.24917761  0.61957322    -1.41600
C358        C  0.44441097  0.34588575  0.66718600     1.10000
C359        C  0.55234694  0.14788700  0.67432411     1.10100
C360        C  0.59957398  0.24823173  0.68339050     1.10000
C361        C  0.40757933  0.20758641  0.69272203     1.10000
O362        O  0.30964747  0.98078706  0.17160622    -0.79600
O363        O  0.30440219  0.02042690  0.33203067    -0.79700
O364        O  0.35057106  0.89912491  0.23292836    -0.79700
O365        O  0.35085322  0.10185986  0.27164261    -0.79600
O366        O  0.29625826  0.94372405  0.26766677    -0.79700
O367        O  0.29826384  0.05815264  0.23413475    -0.79700
O368        O  0.36685093  0.05992631  0.35144225    -0.79600
O369        O  0.37261013  0.94075308  0.15434709    -0.79700
C370        C  0.32978494  0.95008554  0.14588584     1.10000
C371        C  0.32378411  0.05032413  0.35903895     1.09900
C372        C  0.30752223  0.90860723  0.24271735     1.10100
C373        C  0.30841730  0.09298522  0.25980539     1.09900
O374        O  0.38368333  0.09791995  0.19409366    -0.79600
O375        O  0.37951043  0.90262623  0.31162438    -0.79700
O376        O  0.45537350  0.98253589  0.19694037    -0.79700
O377        O  0.45191927  0.01699798  0.31417862    -0.79600
O378        O  0.39563604  0.98149299  0.35509551    -0.79700
O379        O  0.40330427  0.01866433  0.15182211    -0.79700
O380        O  0.44519745  0.07970715  0.23542541    -0.79600
O381        O  0.44317275  0.92127027  0.27356312    -0.79700
Co382      Co  0.34913851  0.03509091  0.19381766     1.51500
Co383      Co  0.34479473  0.96587920  0.31046514     1.51700
Co384      Co  0.40466253  0.94183973  0.21841857     1.51600
Co385      Co  0.40322917  0.05864154  0.28910368     1.51500
O386        O  0.37556213  0.00047879  0.25301575    -1.41600
C387        C  0.42655170  0.10553450  0.20425169     1.10000
C388        C  0.42289403  0.89484797  0.30295070     1.10100
C389        C  0.44569298  0.00748695  0.16170739     1.10000
C390        C  0.43873978  0.99201466  0.34854116     1.10000
C391        C  0.46715664  0.03670122  0.52665511     0.02800
C392        C  0.50914384  0.02048588  0.54586106     0.02800
C393        C  0.53189878  0.98155626  0.52655509     0.02800
C394        C  0.51226959  0.95876689  0.48806955     0.02800
C395        C  0.46972972  0.97441407  0.46943801     0.02800
C396        C  0.44558789  0.01168707  0.49059611     0.02800
O397        O  0.41924226  0.72987892  0.44241432    -0.79600
O398        O  0.57735549  0.76720176  0.44429706    -0.79700
O399        O  0.47851973  0.64638369  0.39704343    -0.79700
O400        O  0.51715457  0.85034194  0.40167332    -0.79600
O401        O  0.51434834  0.68839645  0.45244519    -0.79700
O402        O  0.48024418  0.80595354  0.45381726    -0.79700
O403        O  0.59624855  0.80724929  0.38222304    -0.79600
O404        O  0.40056438  0.69099981  0.37938703    -0.79700
C405        C  0.39305852  0.70008277  0.42255924     1.10000
C406        C  0.60353091  0.79779402  0.42508021     1.09900
C407        C  0.48760667  0.65488491  0.43999011     1.10100
C408        C  0.50513007  0.84116961  0.44396879     1.09900
O409        O  0.43876242  0.84746247  0.37076267    -0.79600
O410        O  0.55805555  0.65037618  0.36840463    -0.79700
O411        O  0.44295398  0.73274105  0.29621619    -0.79700
O412        O  0.55656292  0.76651354  0.29788553    -0.79600
O413        O  0.60031556  0.72967878  0.35082194    -0.79700
O414        O  0.39755446  0.76849355  0.34931603    -0.79700
O415        O  0.47912445  0.82955808  0.30818293    -0.79600
O416        O  0.51937870  0.66974088  0.30576085    -0.79700
Co417      Co  0.43979093  0.78395382  0.40335562     1.51500
Co418      Co  0.55668732  0.71292225  0.40353892     1.51700
Co419      Co  0.46412658  0.69076273  0.34531602     1.51600
Co420      Co  0.53341834  0.80749103  0.34801282     1.51500
O421        O  0.49860957  0.74869677  0.37526436    -1.41600
C422        C  0.44842956  0.85559642  0.32802422     1.10000
C423        C  0.54946527  0.64330744  0.32520246     1.10100
C424        C  0.40779987  0.75804214  0.30666537     1.10000
C425        C  0.59137791  0.74086237  0.30830093     1.10000
O426        O  0.55348894  0.92024846  0.77239191    -0.79600
O427        O  0.55441318  0.08299330  0.73164375    -0.79700
O428        O  0.59865024  0.98182023  0.85162755    -0.79700
O429        O  0.59453606  0.01834799  0.65099564    -0.79600
O430        O  0.54420061  0.01938991  0.80999433    -0.79700
O431        O  0.54201269  0.98245035  0.69639222    -0.79700
O432        O  0.61764008  0.09781850  0.69122884    -0.79600
O433        O  0.61696035  0.90182034  0.81011245    -0.79700
C434        C  0.57384696  0.89368648  0.80150445     1.10000
C435        C  0.57523442  0.10803822  0.70109144     1.09900
C436        C  0.55588518  0.99352482  0.84425637     1.10100
C437        C  0.55199604  0.00805501  0.66165301     1.09900
O438        O  0.62432312  0.94019219  0.65295709    -0.79600
O439        O  0.62872496  0.05922089  0.84773827    -0.79700
O440        O  0.70010964  0.94212586  0.76583566    -0.79700
O441        O  0.70055623  0.05601174  0.73132331    -0.79600
O442        O  0.64902686  0.10161156  0.76909620    -0.79700
O443        O  0.64630622  0.89776741  0.73103469    -0.79700
O444        O  0.68762939  0.97857218  0.67100000    -0.79600
O445        O  0.69102992  0.01950882  0.82733031    -0.79700
Co446      Co  0.59226971  0.94108882  0.71705011     1.51500
Co447      Co  0.59446216  0.05970151  0.78557747     1.51700
Co448      Co  0.65091796  0.96513065  0.80796175     1.51600
Co449      Co  0.64933052  0.03376246  0.69190500     1.51500
O450        O  0.62139721  0.99999863  0.75069819    -1.41600
C451        C  0.66736819  0.94876919  0.64500238     1.10000
C452        C  0.67177876  0.04971953  0.85406703     1.10100
C453        C  0.68922504  0.90701335  0.74096906     1.10000
C454        C  0.69116564  0.09209729  0.75568027     1.10000
C455        C  0.52299065  0.97356321  0.96425912     0.02800
C456        C  0.48172393  0.95758326  0.98527911     0.02800
C457        C  0.46368806  0.98043428  0.02491598     0.02800
C458        C  0.48779824  0.01839691  0.04418004     0.02800
C459        C  0.52960844  0.03386450  0.02364518     0.02800
C460        C  0.54848665  0.00986323  0.98497216     0.02800
O461        O  0.42297323  0.26519482  0.05653051    -0.79600
O462        O  0.58403341  0.22503599  0.05903142    -0.79700
O463        O  0.48529169  0.34846916  0.09837254    -0.79700
O464        O  0.52245195  0.14484089  0.10419665    -0.79600
O465        O  0.52173105  0.30247072  0.04647367    -0.79700
O466        O  0.48681679  0.18708037  0.04947560    -0.79700
O467        O  0.60224193  0.18691620  0.12230713    -0.79600
O468        O  0.40499703  0.30747154  0.11783419    -0.79700
C469        C  0.39675088  0.29653879  0.07522304     1.10000
C470        C  0.61063455  0.19563970  0.07945205     1.09900
C471        C  0.49665546  0.33800207  0.05606475     1.10100
C472        C  0.51233005  0.15262330  0.06121647     1.09900
O473        O  0.44380556  0.15041733  0.13473660    -0.79600
O474        O  0.56352721  0.34542231  0.12977727    -0.79700
O475        O  0.44471976  0.26796965  0.20318401    -0.79700
O476        O  0.56287862  0.23225842  0.20458794    -0.79600
O477        O  0.60629890  0.26669522  0.14958891    -0.79700
O478        O  0.40111887  0.23034405  0.15061766    -0.79700
O479        O  0.48361414  0.17011608  0.19684185    -0.79600
O480        O  0.52282340  0.32920515  0.19237303    -0.79700
Co481      Co  0.44488290  0.21218768  0.09842546     1.51500
Co482      Co  0.56281732  0.28116070  0.09693158     1.51700
Co483      Co  0.46842549  0.30721305  0.15241823     1.51600
Co484      Co  0.53863408  0.18968846  0.15610574     1.51500
O485        O  0.50372611  0.24756043  0.12610447    -1.41600
C486        C  0.45301486  0.14368728  0.17789342     1.10000
C487        C  0.55357195  0.35469953  0.17251587     1.10100
C488        C  0.40965365  0.24269847  0.19294556     1.10000
C489        C  0.59861434  0.25600361  0.19239295     1.10000
O490        O  0.14918093  0.13534093  0.44570763    -0.79600
O491        O  0.32889359  0.14450155  0.57326315    -0.79700
O492        O  0.16491190  0.19049413  0.58890330    -0.79700
O493        O  0.26765239  0.20321369  0.43853251    -0.79600
O494        O  0.24262363  0.17968415  0.58456249    -0.79700
O495        O  0.22859199  0.14915273  0.39697850    -0.79700
O496        O  0.31705133  0.20002113  0.52292095    -0.79600
O497        O  0.16584323  0.19807062  0.48756104    -0.79700
C498        C  0.14106675  0.17793276  0.45577831     1.10000
C499        C  0.33987234  0.18508273  0.55787506     1.09900
C500        C  0.20621828  0.19450805  0.60705313     1.10100
C501        C  0.24068176  0.19167011  0.40506690     1.09900
O502        O  0.26490865  0.05795507  0.42275739    -0.79600
O503        O  0.25973721  0.08909302  0.62523230    -0.79700
O504        O  0.14510224  0.10836797  0.52744035    -0.79700
O505        O  0.34381833  0.10313263  0.49594372    -0.79600
O506        O  0.29331772  0.05790206  0.53587295    -0.79700
O507        O  0.18624311  0.05338517  0.48835384    -0.79700
O508        O  0.31053037  0.11771470  0.40806898    -0.79600
O509        O  0.19216661  0.10535964  0.59321930    -0.79700
Co510      Co  0.21005758  0.09926096  0.44237418     1.51500
Co511      Co  0.26386889  0.11477652  0.56071043     1.51700
Co512      Co  0.19362056  0.15607636  0.53787549     1.51600
Co513      Co  0.30594003  0.15573714  0.46872909     1.51500
O514        O  0.24529062  0.13054916  0.49562623    -1.41600
C515        C  0.29812177  0.07598147  0.39864792     1.10000
C516        C  0.21499161  0.08564734  0.62680895     1.10100
C517        C  0.15415309  0.06573185  0.51765322     1.10000
C518        C  0.33076495  0.06310355  0.51162611     1.10000
C519        C  0.76833515  0.78719834  0.27616638     0.02800
C520        C  0.78883700  0.77283967  0.23384096     0.02800
C521        C  0.76926435  0.73607723  0.20826365     0.02800
C522        C  0.73001758  0.71258733  0.22583327     0.02800
C523        C  0.70942753  0.72702462  0.26812762     0.02800
C524        C  0.72888259  0.76395502  0.29359150     0.02800
O525        O  0.61928567  0.59839363  0.30752133    -0.79600
O526        O  0.62128903  0.40395766  0.18635098    -0.79700
O527        O  0.54657234  0.51758854  0.19031806    -0.79700
O528        O  0.55116996  0.48228878  0.30865070    -0.79600
O529        O  0.60038108  0.48296002  0.14509729    -0.79700
O530        O  0.60550646  0.51923835  0.35059380    -0.79700
O531        O  0.55968974  0.42018885  0.22922638    -0.79600
O532        O  0.55646039  0.57858761  0.26885610    -0.79700
C533        C  0.57586264  0.60505078  0.29901687     1.10000
C534        C  0.57887239  0.39477583  0.19751500     1.09900
C535        C  0.55756788  0.49302627  0.15468801     1.10100
C536        C  0.56271191  0.50813553  0.34314925     1.09900
O537        O  0.69883976  0.48368662  0.32464710    -0.79600
O538        O  0.69279613  0.52279302  0.16624387    -0.79700
O539        O  0.64827930  0.60384238  0.22867790    -0.79700
O540        O  0.65499722  0.40071357  0.26341329    -0.79600
O541        O  0.70560449  0.44667759  0.22622990    -0.79700
O542        O  0.70370088  0.56060977  0.26210958    -0.79700
O543        O  0.63817100  0.44194851  0.34451074    -0.79600
O544        O  0.62940716  0.56163330  0.14923074    -0.79700
Co545      Co  0.65604342  0.53664360  0.30512467     1.51500
Co546      Co  0.65427262  0.46780228  0.18697624     1.51700
Co547      Co  0.59601326  0.55947026  0.21315000     1.51600
Co548      Co  0.60126468  0.44224316  0.28257141     1.51500
O549        O  0.62658028  0.50148413  0.24699658    -1.41600
C550        C  0.68109671  0.45276486  0.35125537     1.10000
C551        C  0.67257793  0.55300558  0.14087693     1.10100
C552        C  0.69153206  0.59529942  0.23758212     1.10000
C553        C  0.69697998  0.41128907  0.25099586     1.10000
C554        C  0.80181500  0.23394029  0.26586390     0.02800
C555        C  0.77022008  0.20636451  0.24184757     0.02800
C556        C  0.73700150  0.22858916  0.21454092     0.02800
C557        C  0.72028750  0.27200511  0.22949495     0.02800
C558        C  0.74441737  0.29595092  0.26489272     0.02800
C559        C  0.78711845  0.27799958  0.28126895     0.02800
C560        C  0.72691865  0.73490184  0.79064351     0.02800
C561        C  0.76650458  0.71175572  0.77280568     0.02800
C562        C  0.78953822  0.72905478  0.73321331     0.02800
C563        C  0.77136473  0.76781832  0.70985159     0.02800
C564        C  0.73103343  0.79019976  0.72704491     0.02800
C565        C  0.70856111  0.77339356  0.76709227     0.02800
O566        O  0.19441228  0.97707964  0.82948046    -0.79600
O567        O  0.20230876  0.02239804  0.68450048    -0.79700
O568        O  0.14951484  0.88923642  0.76216944    -0.79700
O569        O  0.16951939  0.08137267  0.76759404    -0.79600
O570        O  0.20483533  0.93430751  0.73008406    -0.79700
O571        O  0.17974779  0.06963489  0.84577766    -0.79700
O572        O  0.14488924  0.07248456  0.67628059    -0.79600
O573        O  0.13556294  0.93020754  0.84529039    -0.79700
C574        C  0.17711397  0.94412079  0.85429643     1.10000
C575        C  0.18683278  0.05944449  0.66510059     1.09900
C576        C  0.19267813  0.89906828  0.75402920     1.10100
C577        C  0.19198169  0.08836035  0.80678971     1.09900
O578        O  0.09494423  0.08049818  0.80974143    -0.79600
O579        O  0.11920450  0.90637130  0.68241046    -0.79700
O580        O  0.04910253  0.97298692  0.81107279    -0.79700
O581        O  0.05668257  0.02755282  0.69910455    -0.79600
O582        O  0.10927883  0.99470844  0.65050770    -0.79700
O583        O  0.10245339  0.00778016  0.85529191    -0.79700
O584        O  0.07914997  0.11521318  0.74310114    -0.79600
O585        O  0.05835085  0.91827622  0.72901058    -0.79700
Co586      Co  0.14832394  0.02651885  0.80768940     1.51500
Co587      Co  0.15837867  0.96623586  0.69113024     1.51700
Co588      Co  0.09842968  0.93189362  0.78435717     1.51600
Co589      Co  0.10924184  0.05336073  0.73689736     1.51500
O590        O  0.12780066  0.98847474  0.75215386    -1.41600
C591        C  0.07438134  0.11433798  0.78767644     1.10000
C592        C  0.07721531  0.89599563  0.69519529     1.10100
C593        C  0.05984750  0.99859916  0.84586088     1.10000
C594        C  0.06695017  0.00644470  0.66061438     1.10000
O595        O  0.77114717  0.44509184  0.57480705    -0.79600
O596        O  0.73843828  0.44733307  0.41648361    -0.79700
O597        O  0.85853848  0.40083030  0.51749032    -0.79700
O598        O  0.65407525  0.39687577  0.47225869    -0.79600
O599        O  0.81730147  0.45659934  0.48233789    -0.79700
O600        O  0.69355244  0.45240254  0.51019070    -0.79700
O601        O  0.70109394  0.38397842  0.39517079    -0.79600
O602        O  0.81188242  0.38350710  0.59400295    -0.79700
C603        C  0.80154950  0.42625274  0.60147867     1.10000
C604        C  0.70875719  0.42741150  0.38927100     1.09900
C605        C  0.85216706  0.44357460  0.50708777     1.10100
C606        C  0.65939911  0.43946323  0.48454640     1.09900
O607        O  0.65642331  0.36734648  0.55025226    -0.79600
O608        O  0.85781242  0.37410318  0.43779651    -0.79700
O609        O  0.77263710  0.29914459  0.55106883    -0.79700
O610        O  0.74619513  0.30078699  0.43355490    -0.79600
O611        O  0.78024754  0.35748449  0.39262211    -0.79700
O612        O  0.73460952  0.35136656  0.59527573    -0.79700
O613        O  0.67742991  0.30573328  0.50970977    -0.79600
O614        O  0.83856947  0.31095218  0.47588619    -0.79700
Co615      Co  0.71822363  0.40378709  0.55193738     1.51500
Co616      Co  0.79415062  0.40831853  0.43824990     1.51700
Co617      Co  0.81444145  0.34913914  0.53069031     1.51600
Co618      Co  0.70082419  0.34740136  0.45676608     1.51500
O619        O  0.75689318  0.37748606  0.49437202    -1.41600
C620        C  0.64940942  0.32467422  0.53961694     1.10000
C621        C  0.86604302  0.33138182  0.44706604     1.10100
C622        C  0.74667489  0.30915688  0.58598704     1.10000
C623        C  0.77219528  0.31425894  0.39984436     1.10000
C624        C  0.97492321  0.47604461  0.52571692     0.02800
C625        C  0.98815621  0.52176372  0.53742992     0.02800
C626        C  0.02245486  0.54441170  0.51070307     0.02800
C627        C  0.04046977  0.52251066  0.47055627     0.02800
C628        C  0.02518870  0.47789199  0.45848771     0.02800
C629        C  0.99941634  0.45199519  0.49056308     0.02800
O630        O  0.84761796  0.63504923  0.06071901    -0.79600
O631        O  0.65402988  0.63123375  0.93618040    -0.79700
O632        O  0.76980944  0.70626519  0.94233183    -0.79700
O633        O  0.72892207  0.70569128  0.05503908    -0.79600
O634        O  0.73481114  0.65326292  0.89700221    -0.79700
O635        O  0.76572741  0.65410143  0.10011488    -0.79700
O636        O  0.66962715  0.69381428  0.97659171    -0.79600
O637        O  0.83013137  0.69687024  0.02050346    -0.79700
C638        C  0.85590964  0.67761011  0.05114210     1.10000
C639        C  0.64456614  0.67357539  0.94586806     1.09900
C640        C  0.74475023  0.69575692  0.90721636     1.10100
C641        C  0.75392874  0.69616071  0.09037159     1.09900
O642        O  0.72967661  0.56040446  0.07683297    -0.79600
O643        O  0.77391419  0.56071347  0.91948595    -0.79700
O644        O  0.85382289  0.60413895  0.98225127    -0.79700
O645        O  0.64857907  0.60052983  0.01432882    -0.79600
O646        O  0.69542768  0.54905385  0.97838586    -0.79700
O647        O  0.80928944  0.55101218  0.01760018    -0.79700
O648        O  0.68796184  0.62172223  0.09481927    -0.79600
O649        O  0.81341793  0.62307341  0.90181653    -0.79700
Co650      Co  0.78435656  0.60079172  0.05791390     1.51500
Co651      Co  0.71833434  0.59945362  0.93875379     1.51700
Co652      Co  0.81069329  0.65679597  0.96545392     1.51600
Co653      Co  0.68988328  0.65486405  0.03147188     1.51500
O654        O  0.75086222  0.62809129  0.99844134    -1.41600
C655        C  0.69810032  0.57918997  0.10244487     1.10000
C656        C  0.80393447  0.58045036  0.89336267     1.10100
C657        C  0.84453077  0.56167712  0.99249457     1.10000
C658        C  0.65931892  0.55844585  0.00292815     1.10000
C659        C  0.51991153  0.47467753  0.03578948     0.02800
C660        C  0.54230542  0.51367377  0.01682102     0.02800
C661        C  0.52474186  0.53431604  0.97621112     0.02800
C662        C  0.48633489  0.51454750  0.95319607     0.02800
C663        C  0.46408442  0.47539797  0.97204976     0.02800
C664        C  0.48166322  0.45473933  0.01266014     0.02800
O665        O  0.82527293  0.19718673  0.98091288    -0.79600
O666        O  0.67247601  0.19088402  0.02039172    -0.79700
O667        O  0.76387761  0.15149666  0.89075440    -0.79700
O668        O  0.75086127  0.16661434  0.08577421    -0.79600
O669        O  0.72322242  0.20243397  0.93555665    -0.79700
O670        O  0.82767234  0.18586192  0.07908093    -0.79700
O671        O  0.66605489  0.13141715  0.06768312    -0.79600
O672        O  0.84499762  0.13759262  0.93583424    -0.79700
C673        C  0.85157637  0.17977199  0.94825280     1.10000
C674        C  0.65158115  0.17170348  0.05475355     1.09900
C675        C  0.75048636  0.19325989  0.90115474     1.10100
C676        C  0.78723510  0.19041094  0.09912501     1.09900
O677        O  0.80137714  0.09851266  0.08294823    -0.79600
O678        O  0.68454177  0.11719211  0.90128397    -0.79700
O679        O  0.81064871  0.05256065  0.97560125    -0.79700
O680        O  0.70350097  0.05001338  0.02090465    -0.79600
O681        O  0.65067862  0.09721331  0.98733595    -0.79700
O682        O  0.84947228  0.10686608  0.01666322    -0.79700
O683        O  0.73484027  0.07270832  0.11216319    -0.79600
O684        O  0.73163888  0.05802689  0.91431473    -0.79700
Co685      Co  0.79885160  0.15212533  0.02999288     1.51500
Co686      Co  0.68674954  0.15187632  0.96333027     1.51700
Co687      Co  0.78499385  0.10001084  0.93293390     1.51600
Co688      Co  0.73139129  0.10482873  0.05156077     1.51500
O689        O  0.74861837  0.12734677  0.98813551    -1.41600
C690        C  0.77961157  0.07320147  0.11363760     1.10000
C691        C  0.69759886  0.07570345  0.89173157     1.10100
C692        C  0.84184919  0.06443181  0.00539083     1.10000
C693        C  0.66484788  0.05644563  0.99942416     1.10000
O694        O  0.36733012  0.55516079  0.64816889    -0.79600
O695        O  0.36989161  0.43294881  0.84161694    -0.79700
O696        O  0.29447496  0.43564947  0.72674857    -0.79700
O697        O  0.29668104  0.55158565  0.76570947    -0.79600
O698        O  0.34933596  0.39242426  0.76134924    -0.79700
O699        O  0.34949660  0.59574105  0.72908650    -0.79700
O700        O  0.30739638  0.47363002  0.82571648    -0.79600
O701        O  0.30437310  0.51569545  0.66614169    -0.79700
C702        C  0.32419542  0.54633689  0.64049722     1.10000
C703        C  0.32727910  0.44321341  0.85121822     1.09900
C704        C  0.30657347  0.39976821  0.74989846     1.10100
C705        C  0.30694778  0.58654382  0.74065065     1.09900
O706        O  0.44343678  0.57401317  0.76508200    -0.79600
O707        O  0.44076501  0.41354959  0.72075803    -0.79700
O708        O  0.39643358  0.47669640  0.64164474    -0.79700
O709        O  0.40154256  0.51063577  0.84601395    -0.79600
O710        O  0.45350844  0.47462523  0.79953470    -0.79700
O711        O  0.45140135  0.51118995  0.68511705    -0.79700
O712        O  0.38141111  0.59115331  0.80686825    -0.79600
O713        O  0.37742798  0.39650774  0.68168474    -0.79700
Co714      Co  0.40231453  0.55279451  0.71072601     1.51500
Co715      Co  0.40263314  0.43456712  0.77712561     1.51700
Co716      Co  0.34401735  0.46017147  0.68538842     1.51600
Co717      Co  0.34736354  0.52788954  0.80490254     1.51500
O718        O  0.37391291  0.49382018  0.74448604    -1.41600
C719        C  0.42411812  0.59982356  0.79649080     1.10000
C720        C  0.42015222  0.38729381  0.69101091     1.10100
C721        C  0.43950173  0.48605645  0.65012813     1.10000
C722        C  0.44390246  0.49928196  0.83547996     1.10000
O723        O  0.80839374  0.88232695  0.40580165    -0.79600
O724        O  0.68411684  0.88012631  0.59900063    -0.79700
O725        O  0.68644163  0.95153030  0.48285392    -0.79700
O726        O  0.80137256  0.95470739  0.52271817    -0.79600
O727        O  0.64252990  0.89847541  0.51916537    -0.79700
O728        O  0.84798974  0.90332901  0.48650382    -0.79700
O729        O  0.72289499  0.94263150  0.58040297    -0.79600
O730        O  0.76593538  0.94312422  0.42360813    -0.79700
C731        C  0.79760381  0.92467258  0.39791417     1.10000
C732        C  0.69272311  0.92303266  0.60638293     1.09900
C733        C  0.65096425  0.94085486  0.50760869     1.10100
C734        C  0.83794365  0.94522232  0.49911755     1.09900
O735        O  0.82736445  0.81002067  0.52379682    -0.79600
O736        O  0.66808017  0.80535223  0.48136220    -0.79700
O737        O  0.73109208  0.84847306  0.40061549    -0.79700
O738        O  0.76284484  0.85055870  0.60432710    -0.79600
O739        O  0.72856511  0.79729349  0.55892514    -0.79700
O740        O  0.76857248  0.79781600  0.44603001    -0.79700
O741        O  0.84341543  0.87213901  0.56472491    -0.79600
O742        O  0.64939561  0.86665297  0.44099110    -0.79700
Co743      Co  0.80705062  0.84902494  0.46918584     1.51500
Co744      Co  0.68682045  0.84615638  0.53586558     1.51700
Co745      Co  0.71202450  0.90184333  0.44290003     1.51600
Co746      Co  0.77887483  0.90416926  0.56215706     1.51500
O747        O  0.74617244  0.87535327  0.50248529    -1.41600
C748        C  0.85262479  0.82976855  0.55460924     1.10000
C749        C  0.64195701  0.82401632  0.45075951     1.10100
C750        C  0.74348648  0.80664535  0.41067409     1.10000
C751        C  0.75369143  0.80795831  0.59392231     1.10000
O752        O  0.05664398  0.58308079  0.22800227    -0.79600
O753        O  0.04916816  0.42915657  0.26627025    -0.79700
O754        O  0.10153872  0.52038195  0.14397014    -0.79700
O755        O  0.09816166  0.48716343  0.34915803    -0.79600
O756        O  0.04589636  0.48785199  0.18765489    -0.79700
O757        O  0.04524740  0.52387629  0.30591272    -0.79700
O758        O  0.10948576  0.40630637  0.30639360    -0.79600
O759        O  0.11936902  0.59945882  0.18718762    -0.79700
C760        C  0.07659754  0.60842795  0.19745042     1.10000
C761        C  0.06561235  0.40231227  0.29745792     1.09900
C762        C  0.05825906  0.51195678  0.15267796     1.10100
C763        C  0.05569032  0.49844549  0.34047208     1.09900
O764        O  0.13196879  0.56319820  0.34461153    -0.79600
O765        O  0.13046880  0.44157084  0.15011928    -0.79700
O766        O  0.20304110  0.55840556  0.23005906    -0.79700
O767        O  0.19804055  0.44148866  0.26501422    -0.79600
O768        O  0.14370997  0.39852982  0.22980579    -0.79700
O769        O  0.15031569  0.60429457  0.26514686    -0.79700
O770        O  0.19230481  0.51939069  0.32647301    -0.79600
O771        O  0.19319893  0.48082754  0.16896234    -0.79700
Co772      Co  0.09650473  0.56261809  0.28209558     1.51500
Co773      Co  0.09307893  0.44488833  0.21224122     1.51700
Co774      Co  0.15341719  0.53608005  0.18844502     1.51600
Co775      Co  0.14915439  0.46710435  0.30586826     1.51500
O776        O  0.12311327  0.50277168  0.24708309    -1.41600
C777        C  0.17447244  0.55142850  0.35228837     1.10000
C778        C  0.17390475  0.45028284  0.14289493     1.10100
C779        C  0.19291493  0.59399700  0.25472854     1.10000
C780        C  0.18673388  0.40654560  0.24027408     1.10000
C781        C  0.51079365  0.44784720  0.50272598     0.02800
C782        C  0.47723301  0.47123194  0.53059656     0.02800
C783        C  0.46800485  0.51882771  0.52330654     0.02800
C784        C  0.49746936  0.54459730  0.49400782     0.02800
C785        C  0.52686836  0.52069945  0.46301466     0.02800
C786        C  0.53688466  0.47351256  0.47018406     0.02800
C787        C  0.98436488  0.48226291  0.95600564     0.02800
C788        C  0.02347195  0.46382478  0.97887997     0.02800
C789        C  0.04207902  0.48691753  0.01778965     0.02800
C790        C  0.02079754  0.52770703  0.03473617     0.02800
C791        C  0.98130800  0.54587302  0.01231090     0.02800
C792        C  0.96240826  0.52246684  0.97362564     0.02800
C793        C  0.02317710  0.52492704  0.11803063    -0.15900
C794        C  0.03714921  0.54712706  0.07926105    -0.31100
H795        H  0.99010202  0.50582182  0.11821713     0.13100
H796        H  0.07067170  0.56535166  0.07827980     0.13700
C797        C  0.47449623  0.47284640  0.61468827    -0.15900
C798        C  0.46026426  0.45154445  0.57494440    -0.31100
H799        H  0.50769994  0.49171177  0.61506337     0.13100
H800        H  0.42712115  0.43271002  0.57367775     0.13700
C801        C  0.46952849  0.53311249  0.90860039    -0.15900
C802        C  0.48070499  0.50917752  0.86956902    -0.31100
H803        H  0.43772938  0.55431767  0.91029371     0.13100
H804        H  0.51213804  0.48736750  0.86860602     0.13700
C805        C  0.87894190  0.52579230  0.98006449    -0.15900
C806        C  0.91713492  0.53809913  0.95547278    -0.31100
H807        H  0.87925661  0.49401181  0.00085801     0.13100
H808        H  0.91753611  0.57033947  0.93546460     0.13700
C809        C  0.62574351  0.52136033  0.01288489    -0.15900
C810        C  0.58617131  0.53164946  0.03643551    -0.31100
H811        H  0.62759712  0.48991149  0.99120937     0.13100
H812        H  0.58347137  0.56350335  0.05733710     0.13700
C813        C  0.02033079  0.48649740  0.37525338    -0.15900
C814        C  0.03430475  0.46007038  0.41120887    -0.31100
H815        H  0.99017882  0.50977074  0.37909418     0.13100
H816        H  0.06422659  0.43656497  0.40729781     0.13700
C817        C  0.62111797  0.47166804  0.47419080    -0.15900
C818        C  0.58202456  0.45498742  0.45359605    -0.31100
H819        H  0.62042330  0.50509540  0.49264910     0.13100
H820        H  0.58173738  0.42068310  0.43691477     0.13700
C821        C  0.89055552  0.47552490  0.51855733    -0.15900
C822        C  0.92904033  0.45825917  0.54011693    -0.31100
H823        H  0.89201132  0.50894944  0.50062448     0.13100
H824        H  0.92861636  0.42402167  0.55643314     0.13700
C825        C  0.76725544  0.77147829  0.62669482    -0.15900
C826        C  0.79116418  0.78340469  0.66521555    -0.31100
H827        H  0.74696202  0.73927154  0.62609429     0.13100
H828        H  0.81082124  0.81594364  0.66644854     0.13700
C829        C  0.70769305  0.72009737  0.83576420    -0.15900
C830        C  0.73229780  0.73203986  0.87385180    -0.31100
H831        H  0.68706663  0.68814399  0.83521742     0.13100
H832        H  0.75355046  0.76363674  0.87375773     0.13700
C833        C  0.78064305  0.21910131  0.14122203    -0.15900
C834        C  0.73876182  0.21827093  0.16424368    -0.31100
H835        H  0.81162008  0.23398770  0.15782851     0.13100
H836        H  0.70714534  0.20413272  0.14827473     0.13700
C837        C  0.80657976  0.29742875  0.32433588    -0.15900
C838        C  0.78814325  0.28091720  0.36439577    -0.31100
H839        H  0.82007873  0.33289223  0.32229262     0.13100
H840        H  0.77315375  0.24595708  0.36535557     0.13700
C841        C  0.53530410  0.45739444  0.08138548    -0.15900
C842        C  0.52209151  0.48175736  0.11960414    -0.31100
H843        H  0.56756659  0.43684898  0.08127829     0.13100
H844        H  0.49022852  0.50292575  0.11904228     0.13700
C845        C  0.52791835  0.52021280  0.37910981    -0.15900
C846        C  0.54218314  0.54164184  0.41873180    -0.31100
H847        H  0.49537910  0.50021996  0.37921163     0.13100
H848        H  0.57453334  0.56180568  0.41958922     0.13700
C849        C  0.73471815  0.37824996  0.25968941    -0.15900
C850        C  0.72493273  0.33942866  0.28323895    -0.31100
H851        H  0.76617648  0.38016388  0.23779969     0.13100
H852        H  0.69284780  0.33659892  0.30401873     0.13700
C853        C  0.70917709  0.77884245  0.33879515    -0.15900
C854        C  0.73441353  0.76933200  0.37695266    -0.31100
H855        H  0.68595394  0.80910139  0.33811547     0.13100
H856        H  0.75808715  0.73934757  0.37698280     0.13700
C857        C  0.78860283  0.72184642  0.16272791    -0.15900
C858        C  0.76362274  0.73274114  0.12472209    -0.31100
H859        H  0.81129991  0.69117431  0.16277621     0.13100
H860        H  0.74050881  0.76314329  0.12528149     0.13700
C861        C  0.71321009  0.66934809  0.20413864    -0.15900
C862        C  0.72692130  0.62969526  0.22460254    -0.31100
H863        H  0.67941099  0.67139594  0.18652781     0.13100
H864        H  0.76030647  0.62847779  0.24312754     0.13700
C865        C  0.46264923  0.41071121  0.03028370    -0.15900
C866        C  0.48634385  0.37163867  0.01920914    -0.31100
H867        H  0.44209255  0.41291284  0.06255196     0.13100
H868        H  0.50780497  0.37023778  0.98745905     0.13700
C869        C  0.67489262  0.28786424  0.21171701    -0.15900
C870        C  0.63608706  0.26522335  0.22600979    -0.31100
H871        H  0.67531107  0.30779292  0.17934859     0.13100
H872        H  0.63666037  0.24487936  0.25814228     0.13700
C873        C  0.59423692  0.02422626  0.96634417    -0.15900
C874        C  0.63216452  0.01771497  0.99329940    -0.31100
H875        H  0.59361031  0.05192525  0.94038491     0.13100
H876        H  0.63257604  0.99002316  0.01929270     0.13700
C877        C  0.54864364  0.07892280  0.03927747    -0.15900
C878        C  0.52511322  0.11730545  0.02600917    -0.31100
H879        H  0.56802624  0.07869438  0.07208833     0.13100
H880        H  0.50501237  0.11677250  0.99359995     0.13700
C881        C  0.72573181  0.87313473  0.72863754    -0.15900
C882        C  0.71369355  0.83364665  0.70654683    -0.31100
H883        H  0.75843936  0.87464355  0.74830837     0.13100
H884        H  0.68051751  0.83135584  0.68782293     0.13700
C885        C  0.52182612  0.98210380  0.88081472    -0.15900
C886        C  0.53669942  0.95705859  0.91760138    -0.31100
H887        H  0.49018456  0.00346210  0.88367935     0.13100
H888        H  0.56891079  0.93650076  0.91557837     0.13700
C889        C  0.46966065  0.62110416  0.47344868    -0.15900
C890        C  0.50092432  0.59582551  0.49652842    -0.31100
H891        H  0.43640269  0.60483575  0.46434647     0.13100
H892        H  0.53629607  0.60972321  0.50080969     0.13700
C893        C  0.62590677  0.72923459  0.27209237    -0.15900
C894        C  0.66522106  0.70689561  0.28451741    -0.31100
H895        H  0.62514981  0.74941021  0.23983118     0.13100
H896        H  0.66679004  0.68775784  0.31735067     0.13700
C897        C  0.57771974  0.96562718  0.54358185    -0.15900
C898        C  0.61557766  0.97662405  0.51787846    -0.31100
H899        H  0.57759552  0.93431090  0.56500463     0.13100
H900        H  0.61492304  0.00739220  0.49561602     0.13700
C901        C  0.39880184  0.02663991  0.47510655    -0.15900
C902        C  0.36327199  0.02379239  0.50613496    -0.31100
H903        H  0.39770715  0.05201136  0.44687783     0.13100
H904        H  0.36463990  0.99833096  0.53430928     0.13700
C905        C  0.52751800  0.04109558  0.58878847    -0.15900
C906        C  0.51515526  0.02017782  0.62873594    -0.31100
H907        H  0.56095025  0.05927090  0.58562373     0.13100
H908        H  0.48219968  0.00095526  0.63092242     0.13700
C909        C  0.53367080  0.91639771  0.46850033    -0.15900
C910        C  0.51402952  0.87580360  0.48041627    -0.31100
H911        H  0.55269318  0.92010002  0.43549500     0.13100
H912        H  0.49397620  0.87318451  0.51297606     0.13700
C913        C  0.48242951  0.01783725  0.12756695    -0.15900
C914        C  0.47031364  0.03917593  0.08780652    -0.31100
H915        H  0.51478926  0.99746328  0.12906887     0.13100
H916        H  0.43742430  0.05854568  0.08544157     0.13700
C917        C  0.45437285  0.95788420  0.42363312    -0.15900
C918        C  0.47132605  0.98030230  0.38590206    -0.31100
H919        H  0.42072909  0.93988540  0.42264297     0.13100
H920        H  0.50428978  0.99945896  0.38791680     0.13700
C921        C  0.49049509  0.36546196  0.51154914    -0.15900
C922        C  0.52322673  0.39909253  0.51284916    -0.31100
H923        H  0.45838661  0.37007874  0.49148537     0.13100
H924        H  0.55574146  0.39373895  0.53213468     0.13700
C925        C  0.47878579  0.11897562  0.52429677    -0.15900
C926        C  0.45149266  0.08389412  0.53933780    -0.31100
H927        H  0.49913292  0.11490751  0.49203249     0.13100
H928        H  0.43142849  0.08720822  0.57182159     0.13700
C929        C  0.25937360  0.20376106  0.67266906    -0.15900
C930        C  0.21521360  0.20995767  0.65525277    -0.31100
H931        H  0.28910595  0.19488422  0.65018521     0.13100
H932        H  0.18589422  0.21997678  0.67780358     0.13700
C933        C  0.24035328  0.13811713  0.76176785    -0.15900
C934        C  0.22970543  0.12217299  0.80470543    -0.31100
H935        H  0.23905970  0.11524353  0.73113380     0.13100
H936        H  0.23506493  0.14392633  0.83569777     0.13700
C937        C  0.28879851  0.32311309  0.77963501    -0.15900
C938        C  0.27330872  0.36173621  0.75797715    -0.31100
H939        H  0.32275543  0.32242247  0.79703233     0.13100
H940        H  0.24006710  0.36157873  0.73921174     0.13700
C941        C  0.36944747  0.21251084  0.72649622    -0.15900
C942        C  0.34243849  0.25150105  0.72607149    -0.31100
H943        H  0.35706142  0.18093282  0.74362256     0.13100
H944        H  0.35442928  0.28391712  0.71035693     0.13700
C945        C  0.08550547  0.46904267  0.03825403    -0.15900
C946        C  0.12555921  0.47979755  0.01615496    -0.31100
H947        H  0.08252047  0.43687295  0.05817241     0.13100
H948        H  0.12766446  0.51143072  0.99522071     0.13700
C949        C  0.41909838  0.45885454  0.95377950    -0.15900
C950        C  0.38043782  0.47237547  0.97736814    -0.31100
H951        H  0.41990582  0.42575202  0.93478861     0.13100
H952        H  0.38049182  0.50502745  0.99720691     0.13700
C953        C  0.20871138  0.28646327  0.83012173    -0.15900
C954        C  0.22778658  0.27178930  0.87056759    -0.31100
H955        H  0.19498849  0.32176062  0.82647857     0.13100
H956        H  0.24337644  0.23707024  0.87282149     0.13700
C957        C  0.21199783  0.33253443  0.20635217    -0.15900
C958        C  0.22309324  0.37199976  0.22894691    -0.31100
H959        H  0.17888451  0.32991996  0.18756224     0.13100
H960        H  0.25561946  0.37372229  0.24891731     0.13700
C961        C  0.20608939  0.21503039  0.33211360    -0.15900
C962        C  0.22854527  0.22736858  0.37118854    -0.31100
H963        H  0.18697871  0.18220007  0.33003269     0.13100
H964        H  0.24860958  0.25974675  0.37217461     0.13700
C965        C  0.33538917  0.20994330  0.21633954    -0.15900
C966        C  0.37419303  0.23320261  0.22871658    -0.31100
H967        H  0.33459095  0.18907130  0.18429109     0.13100
H968        H  0.37414366  0.25486379  0.26028105     0.13700
C969        C  0.27228020  0.12773305  0.27020356    -0.15900
C970        C  0.28481066  0.16740463  0.29171413    -0.31100
H971        H  0.23995402  0.12637632  0.24991144     0.13100
H972        H  0.31768110  0.16969593  0.31098087     0.13700
C973        C  0.29091997  0.28317899  0.16456343    -0.15900
C974        C  0.26761440  0.27077356  0.12580547    -0.31100
H975        H  0.31156143  0.31511680  0.16572693     0.13100
H976        H  0.24625776  0.23924228  0.12556130     0.13700
C977        C  0.04134858  0.37914759  0.47939956    -0.15900
C978        C  0.99944612  0.40077295  0.48610539    -0.31100
H979        H  0.07355389  0.39601155  0.49109947     0.13100
H980        H  0.96663303  0.38431078  0.47573775     0.13700
C981        C  0.88537549  0.24367842  0.26917519    -0.15900
C982        C  0.84825167  0.21612106  0.27781022    -0.31100
H983        H  0.88409625  0.26931759  0.24115650     0.13100
H984        H  0.84956408  0.18966644  0.30499335     0.13700
C985        C  0.12563433  0.26530708  0.27109667    -0.15900
C986        C  0.16342357  0.29032519  0.28238197    -0.31100
H987        H  0.12560029  0.24441388  0.23898016     0.13100
H988        H  0.16431852  0.31063798  0.31479476     0.13700
C989        C  0.98022412  0.52041766  0.62083776    -0.15900
C990        C  0.96931535  0.54218505  0.58089250    -0.31100
H991        H  0.01247091  0.49989169  0.62277081     0.13100
H992        H  0.93708515  0.56250199  0.57797277     0.13700
C993        C  0.97989126  0.48510874  0.87249701    -0.15900
C994        C  0.96771370  0.46246139  0.91168422    -0.31100
H995        H  0.01207433  0.50562398  0.87160465     0.13100
H996        H  0.93509381  0.44273621  0.91342603     0.13700
C997        C  0.77015700  0.62867331  0.76796173    -0.15900
C998        C  0.78217456  0.66711565  0.79204950    -0.31100
H999        H  0.73802219  0.62844282  0.74734410     0.13100
H1000       H  0.81469366  0.66804087  0.81197942     0.13700
C1001       C  0.71760561  0.16689279  0.78515678    -0.15900
C1002       C  0.72778526  0.12715553  0.76229599    -0.31100
H1003       H  0.68666521  0.16940384  0.80769169     0.13100
H1004       H  0.75838106  0.12547953  0.73918108     0.13700
C1005       C  0.78870211  0.22074602  0.83131680    -0.15900
C1006       C  0.76177559  0.23056070  0.86863942    -0.31100
H1007       H  0.81096154  0.18975898  0.83062313     0.13100
H1008       H  0.73877445  0.26106346  0.86850282     0.13700
C1009       C  0.63136008  0.23429703  0.72044252    -0.15900
C1010       C  0.66917176  0.20873829  0.70884389    -0.31100
H1011       H  0.63134137  0.25541779  0.75239650     0.13100
H1012       H  0.67013268  0.18804333  0.67667915     0.13700
C1013       C  0.71169129  0.28476044  0.65887104    -0.15900
C1014       C  0.73614701  0.27308572  0.62033073    -0.31100
H1015       H  0.69079513  0.31667543  0.65994927     0.13100
H1016       H  0.75799915  0.24177580  0.62001573     0.13700
C1017       C  0.78069702  0.33961353  0.70654977    -0.15900
C1018       C  0.76942045  0.37794901  0.73132863    -0.31100
H1019       H  0.81166984  0.33898609  0.68396183     0.13100
H1020       H  0.73866787  0.37787968  0.75427739     0.13700
C1021       C  0.51846271  0.61748876  0.97340336    -0.15900
C1022       C  0.54246503  0.57931836  0.95992604    -0.31100
H1023       H  0.49768706  0.61713108  0.00562076     0.13100
H1024       H  0.56227360  0.57882795  0.92714048     0.13700
C1025       C  0.62512339  0.76862375  0.76936821    -0.15900
C1026       C  0.66332920  0.79244206  0.78247947    -0.31100
H1027       H  0.62562577  0.74818553  0.73699523     0.13100
H1028       H  0.66357180  0.81217104  0.81525602     0.13700
C1029       C  0.46052322  0.91460638  0.96698082    -0.15900
C1030       C  0.48140966  0.87433948  0.97850717    -0.31100
H1031       H  0.44126757  0.91765061  0.93424413     0.13100
H1032       H  0.50171970  0.87222331  0.01072250     0.13700
C1033       C  0.21561885  0.82834236  0.79288014    -0.15900
C1034       C  0.22848941  0.86545493  0.76767260    -0.31100
H1035       H  0.18294537  0.82877691  0.81295030     0.13100
H1036       H  0.26085870  0.86443845  0.74706457     0.13700
C1037       C  0.28268684  0.65996408  0.70801717    -0.15900
C1038       C  0.27058767  0.62083961  0.73035490    -0.31100
H1039       H  0.31529307  0.66178151  0.68793309     0.13100
H1040       H  0.23845212  0.61989654  0.75131168     0.13700
C1041       C  0.33412698  0.70295519  0.78285074    -0.15900
C1042       C  0.37222383  0.72729524  0.77003340    -0.31100
H1043       H  0.33410897  0.68242605  0.81484800     0.13100
H1044       H  0.37149702  0.74851651  0.73847844     0.13700
C1045       C  0.38378049  0.52479285  0.51508005    -0.15900
C1046       C  0.42274766  0.53916346  0.53777633    -0.31100
H1047       H  0.38378371  0.49169613  0.49605483     0.13100
H1048       H  0.42358541  0.57306872  0.55520448     0.13700
C1049       C  0.12357016  0.52504877  0.47016851    -0.15900
C1050       C  0.08386560  0.54017034  0.45000267    -0.31100
H1051       H  0.12467886  0.49085000  0.48667857     0.13100
H1052       H  0.08193863  0.57479339  0.43457503     0.13700
C1053       C  0.23004253  0.72440901  0.62784165    -0.15900
C1054       C  0.20699463  0.71085931  0.66642059    -0.31100
H1055       H  0.25066211  0.75642005  0.62830033     0.13100
H1056       H  0.18725547  0.67834417  0.66681533     0.13700
C1057       C  0.33528377  0.79305242  0.28223595    -0.15900
C1058       C  0.37442488  0.76995382  0.27010707    -0.31100
H1059       H  0.33357007  0.81318958  0.31472781     0.13100
H1060       H  0.37536781  0.74915849  0.23795898     0.13700
C1061       C  0.28410457  0.83544039  0.20783298    -0.15900
C1062       C  0.27141957  0.87458063  0.23049299    -0.31100
H1063       H  0.31731922  0.83372423  0.18872622     0.13100
H1064       H  0.23869233  0.87560137  0.25051700     0.13700
C1065       C  0.21798550  0.66622625  0.29017897    -0.15900
C1066       C  0.22959674  0.62772520  0.26584360    -0.31100
H1067       H  0.18581278  0.66739562  0.31101910     0.13100
H1068       H  0.26130192  0.62720381  0.24423312     0.13700
C1069       C  0.29439121  0.71607103  0.33189427    -0.15900
C1070       C  0.27169467  0.72817315  0.37137478    -0.31100
H1071       H  0.31374076  0.68327405  0.32964581     0.13100
H1072       H  0.25137542  0.76047591  0.37278779     0.13700
C1073       C  0.96170699  0.59025440  0.02928083    -0.15900
C1074       C  0.98605407  0.62889343  0.01942595    -0.31100
H1075       H  0.93970601  0.58861610  0.06058933     0.13100
H1076       H  0.00874115  0.62973721  0.98852279     0.13700
C1077       C  0.87240484  0.77088928  0.22981777    -0.15900
C1078       C  0.83297737  0.79305140  0.21739415    -0.31100
H1079       H  0.87324417  0.75059499  0.26199969     0.13100
H1080       H  0.83132066  0.81227619  0.18461635     0.13700
C1081       C  0.12604013  0.73509032  0.23123204    -0.15900
C1082       C  0.16443678  0.71088503  0.21851628    -0.31100
H1083       H  0.12630745  0.75642754  0.26301198     0.13100
H1084       H  0.16484717  0.69007903  0.18641636     0.13700
C1085       C  0.28989164  0.77673641  0.83647163    -0.15900
C1086       C  0.26606092  0.76707368  0.87584366    -0.31100
H1087       H  0.31183851  0.80773590  0.83437185     0.13100
H1088       H  0.24335781  0.73652422  0.87714318     0.13700
C1089       C  0.23098955  0.77270296  0.12761626    -0.15900
C1090       C  0.20739643  0.78532626  0.16643542    -0.31100
H1091       H  0.25088868  0.74012908  0.12691772     0.13100
H1092       H  0.18827239  0.81829167  0.16786149     0.13700
C1093       C  0.38014752  0.97713778  0.01768781    -0.15900
C1094       C  0.41787620  0.96590494  0.04316884    -0.31100
H1095       H  0.38091973  0.00786991  0.99537928     0.13100
H1096       H  0.41781885  0.93478722  0.06488250     0.13700
C1097       C  0.12515391  0.76607864  0.72690612    -0.15900
C1098       C  0.16546052  0.78728125  0.71613081    -0.31100
H1099       H  0.12266967  0.74524238  0.75867955     0.13100
H1100       H  0.16888747  0.80706503  0.68381670     0.13700
C1101       C  0.01267302  0.62741028  0.51571233    -0.15900
C1102       C  0.03918110  0.59025233  0.52578220    -0.31100
H1103       H  0.98917836  0.62658065  0.48567398     0.13100
H1104       H  0.06196654  0.59052900  0.55634382     0.13700
C1105       C  0.87326225  0.73277822  0.72981704    -0.15900
C1106       C  0.83446182  0.70946922  0.71741224    -0.31100
H1107       H  0.87351462  0.75346267  0.76202067     0.13100
H1108       H  0.83355412  0.68946817  0.68482048     0.13700
C1109       C  0.91221014  0.97038648  0.46863781    -0.15900
C1110       C  0.87331416  0.98118507  0.49273577    -0.31100
H1111       H  0.91349259  0.94016436  0.44527314     0.13100
H1112       H  0.87272324  0.01128792  0.51631898     0.13700
C1113       C  0.09988769  0.00481315  0.51007507    -0.15900
C1114       C  0.12339526  0.03195415  0.53914154    -0.31100
H1115       H  0.11519998  0.99675939  0.47579579     0.13100
H1116       H  0.10621141  0.04347558  0.57142872     0.13700
C1117       C  0.04024311  0.96931580  0.58779203    -0.15900
C1118       C  0.03114906  0.99878013  0.62404994    -0.31100
H1119       H  0.07081956  0.94641708  0.58887581     0.13100
H1120       H  0.00126418  0.02254363  0.62266317     0.13700
C1121       C  0.04516024  0.07985736  0.46296764    -0.15900
C1122       C  0.01960105  0.11743551  0.47621493    -0.31100
H1123       H  0.06612445  0.08026610  0.43092464     0.13100
H1124       H  0.99877629  0.11635552  0.50838768     0.13700
C1125       C  0.95909437  0.92259098  0.54338525    -0.15900
C1126       C  0.97937167  0.88335509  0.52632715    -0.31100
H1127       H  0.94199838  0.92347673  0.57762331     0.13100
H1128       H  0.99749814  0.88369229  0.49257629     0.13700
C1129       C  0.77007150  0.87008293  0.27811141    -0.15900
C1130       C  0.78510734  0.83049320  0.29775876    -0.31100
H1131       H  0.73605885  0.87091258  0.26072639     0.13100
H1132       H  0.81954265  0.82884320  0.31415741     0.13700
C1133       C  0.76214366  0.12326057  0.23193306    -0.15900
C1134       C  0.76028682  0.15990148  0.26045517    -0.31100
H1135       H  0.75728878  0.12856002  0.19457128     0.13100
H1136       H  0.76843127  0.15470288  0.29747646     0.13700
C1137       C  0.97363661  0.02079175  0.37883929    -0.15900
C1138       C  0.96115005  0.04143218  0.41939064    -0.31100
H1139       H  0.00678522  0.00177901  0.37623467     0.13100
H1140       H  0.92725150  0.05891694  0.42279273     0.13700
C1141       C  0.12681111  0.23279202  0.77338513    -0.15900
C1142       C  0.16137506  0.20491960  0.78852867    -0.31100
H1143       H  0.13197710  0.25513193  0.74303190     0.13100
H1144       H  0.15613332  0.18214421  0.81848182     0.13700
C1145       C  0.01705223  0.38080342  0.97655904    -0.15900
C1146       C  0.04171397  0.41840479  0.96370393    -0.31100
H1147       H  0.99581309  0.38172416  0.00846799     0.13100
H1148       H  0.06231225  0.41815853  0.93140210     0.13700
C1149       C  0.86954313  0.27887787  0.77106726    -0.15900
C1150       C  0.82922596  0.29916835  0.78451809    -0.31100
H1151       H  0.87178353  0.26113995  0.73717547     0.13100
H1152       H  0.82610394  0.31589723  0.81881278     0.13700
C1153       C  0.87260698  0.03028054  0.02601130    -0.15900
C1154       C  0.89727044  0.00442032  0.99637715    -0.31100
H1155       H  0.88808119  0.03978412  0.05964049     0.13100
H1156       H  0.88412334  0.99876302  0.96092342     0.13700
C1157       C  0.02412965  0.01497216  0.87848456    -0.15900
C1158       C  0.03803394  0.04031764  0.91564754    -0.31100
H1159       H  0.99064182  0.99657525  0.87899645     0.13100
H1160       H  0.07202439  0.05772229  0.91602750     0.13700
C1161       C  0.02026297  0.88222802  0.02638848    -0.15900
C1162       C  0.03913491  0.92284267  0.04053575    -0.31100
H1163       H  0.00288028  0.87993455  0.99248486     0.13100
H1164       H  0.05575125  0.92636596  0.07467300     0.13700
C1165       C  0.08733540  0.97002040  0.96612774    -0.15900
C1166       C  0.12658922  0.98094239  0.98897751    -0.31100
H1167       H  0.08539944  0.93839647  0.94479025     0.13100
H1168       H  0.12787533  0.01218231  0.01094011     0.13700
C1169       C  0.94960889  0.96115753  0.07418797    -0.15900
C1170       C  0.96315305  0.98248966  0.11402679    -0.31100
H1171       H  0.91508729  0.94503748  0.07198410     0.13100
H1172       H  0.99676187  0.00059304  0.11527502     0.13700
C1173       C  0.95393466  0.08043458  0.95465792    -0.15900
C1174       C  0.97564798  0.11984694  0.96868602    -0.31100
H1175       H  0.93467519  0.07916906  0.92180722     0.13100
H1176       H  0.99512969  0.12002640  0.00148400     0.13700
loop_ 
_geom_bond_atom_site_label_1 
_geom_bond_atom_site_label_2 
_geom_bond_distance 
_geom_bond_site_symmetry_2 
_ccdc_geom_bond_type 
C1            C2   1.389   1_554  A
C1            C6   1.391   1_545  A
C1         C1154   1.453   1_554  S
C2            C3   1.388   1_655  A
C2         C1173   1.470       .  S
C3            C4   1.396   1_545  A
C3         C1158   1.450       .  S
C4            C5   1.398   1_556  A
C4         C1165   1.460       .  S
C5            C6   1.400   1_455  A
C5         C1162   1.459       .  S
C6         C1169   1.470       .  S
O7           C15   1.278       .  A
O7          Co27   2.073       .  S
O8           C16   1.273       .  A
O8          Co28   2.053       .  S
O9           C17   1.264       .  A
O9          Co29   1.951       .  S
O10          C18   1.264       .  A
O10         Co30   1.952       .  S
O11          C17   1.276       .  A
O11         Co28   1.998       .  S
O12          C18   1.273       .  A
O12         Co27   1.972       .  S
O13          C16   1.271       .  A
O13         Co30   2.012   1_655  S
O14          C15   1.272       .  A
O14         Co29   2.038   1_455  S
C15         C591   1.539       .  S
C16         C242   1.517       .  S
C17        C1149   1.454       .  S
C18        C1141   1.445       .  S
O19          C32   1.281       .  A
O19         Co27   2.038       .  S
O20          C33   1.268       .  A
O20         Co28   2.010       .  S
O21          C34   1.276       .  A
O21         Co29   2.005       .  S
O22          C35   1.276       .  A
O22         Co30   1.992       .  S
O23          C35   1.264   1_655  A
O23         Co28   1.952       .  S
O24          C34   1.270   1_455  A
O24         Co27   1.965       .  S
O25          C32   1.273       .  A
O25         Co30   2.048       .  S
O26          C33   1.279       .  A
O26         Co29   2.065       .  S
Co27         O31   2.105   1_455  S
Co28         O31   2.112       .  S
Co29         O31   2.105       .  S
Co30         O31   2.110   1_455  S
C32         C306   1.530       .  S
C33         C673   1.523       .  S
C34        C1174   1.464       .  S
C35        C1145   1.454       .  S
O36          C44   1.274       .  A
O36         Co56   2.058       .  S
O37          C45   1.271       .  A
O37         Co57   2.049       .  S
O38          C46   1.264       .  A
O38         Co58   1.952       .  S
O39          C47   1.264       .  A
O39         Co59   1.952       .  S
O40          C46   1.277       .  A
O40         Co57   2.001       .  S
O41          C47   1.274       .  A
O41         Co56   1.995       .  S
O42          C45   1.270       .  A
O42         Co59   2.013   1_565  S
O43          C44   1.271       .  A
O43         Co58   2.032   1_545  S
C44         C690   1.528       .  S
C45         C731   1.515       .  S
C46        C1129   1.456       .  S
C47        C1133   1.441       .  S
O48          C61   1.273       .  A
O48         Co56   2.023       .  S
O49          C62   1.269       .  A
O49         Co57   2.005       .  S
O50          C63   1.278       .  A
O50         Co58   2.012       .  S
O51          C64   1.277       .  A
O51         Co59   2.003       .  S
O52          C64   1.265   1_565  A
O52         Co57   1.957       .  S
O53          C63   1.268   1_545  A
O53         Co56   1.960       .  S
O54          C61   1.274       .  A
O54         Co59   2.050       .  S
O55          C62   1.275       .  A
O55         Co58   2.056       .  S
Co56         O60   2.104   1_545  S
Co57         O60   2.107       .  S
Co58         O60   2.110       .  S
Co59         O60   2.110   1_545  S
C61         C271   1.523       .  S
C62         C137   1.515       .  S
C63        C1170   1.465       .  S
C64        C1137   1.460       .  S
C65          C66   1.390   1_565  A
C65          C70   1.401       .  A
C65        C1109   1.456       .  S
C66          C67   1.393   1_655  A
C66        C1138   1.464       .  S
C67          C68   1.389       .  A
C67        C1121   1.460       .  S
C68          C69   1.389   1_545  A
C68        C1113   1.458       .  S
C69          C70   1.398   1_455  A
C69        C1117   1.474       .  S
C70        C1125   1.454       .  S
O71          C79   1.265       .  A
O71         Co91   2.029       .  S
O72          C80   1.269       .  A
O72         Co92   2.044       .  S
O73          C81   1.267       .  A
O73         Co93   1.953       .  S
O74          C82   1.263       .  A
O74         Co94   1.940       .  S
O75          C81   1.279       .  A
O75         Co92   2.002       .  S
O76          C82   1.283       .  A
O76         Co91   2.016       .  S
O77          C80   1.266       .  A
O77         Co94   2.004   1_655  S
O78          C79   1.275       .  A
O78         Co93   2.016   1_455  S
C79         C592   1.506       .  S
C80         C243   1.508       .  S
C81        C1105   1.457       .  S
C82        C1097   1.454       .  S
O83          C96   1.274       .  A
O83         Co91   2.026       .  S
O84          C97   1.268       .  A
O84         Co92   2.006       .  S
O85          C98   1.275       .  A
O85         Co93   1.979       .  S
O86          C99   1.280       .  A
O86         Co94   2.004       .  S
O87          C99   1.265   1_655  A
O87         Co92   1.948       .  S
O88          C98   1.274   1_455  A
O88         Co91   1.968       .  S
O89          C96   1.269       .  A
O89         Co94   2.043       .  S
O90          C97   1.271       .  A
O90         Co93   2.050       .  S
Co91         O95   2.104   1_455  S
Co92         O95   2.100       .  S
Co93         O95   2.102       .  S
Co94         O95   2.096   1_455  S
C96         C172   1.522       .  S
C97         C748   1.512       .  S
C98        C1126   1.455       .  S
C99        C1101   1.455       .  S
O100        C108   1.269       .  A
O100       Co120   2.048       .  S
O101        C109   1.268       .  A
O101       Co121   2.039       .  S
O102        C110   1.266       .  A
O102       Co122   1.952       .  S
O103        C111   1.265       .  A
O103       Co123   1.949       .  S
O104        C110   1.281       .  A
O104       Co121   2.011       .  S
O105        C111   1.279       .  A
O105       Co120   2.004       .  S
O106        C109   1.268       .  A
O106       Co123   2.012   1_556  S
O107        C108   1.268       .  A
O107       Co122   2.011   1_554  S
C108        C154   1.515       .  S
C109        C207   1.510       .  S
C110       C1086   1.458       .  S
C111       C1089   1.456       .  S
O112        C125   1.266       .  A
O112       Co120   2.007       .  S
O113        C126   1.268       .  A
O113       Co121   2.017       .  S
O114        C127   1.281       .  A
O114       Co122   2.009       .  S
O115        C128   1.280       .  A
O115       Co123   2.005       .  S
O116        C128   1.267   1_556  A
O116       Co121   1.950       .  S
O117        C127   1.263   1_554  A
O117       Co120   1.943       .  S
O118        C125   1.271       .  A
O118       Co123   2.052       .  S
O119        C126   1.269       .  A
O119       Co122   2.043       .  S
Co120       O124   2.106       .  S
Co121       O124   2.106   1_556  S
Co122       O124   2.100   1_556  S
Co123       O124   2.103       .  S
C125        C370   1.516       .  S
C126        C574   1.516       .  S
C127       C1166   1.455       .  S
C128       C1093   1.457       .  S
O129        C137   1.273       .  A
O129       Co149   2.019   1_655  S
O130        C138   1.269       .  A
O130       Co150   2.013   1_455  S
O131        C139   1.280       .  A
O131       Co151   2.001       .  S
O132        C140   1.279       .  A
O132       Co152   2.000       .  S
O133        C139   1.267       .  A
O133       Co150   1.951       .  S
O134        C140   1.266       .  A
O134       Co149   1.952       .  S
O135        C138   1.268       .  A
O135       Co152   2.042       .  S
O136        C137   1.269       .  A
O136       Co151   2.041       .  S
C138        C760   1.513       .  S
C139       C1077   1.455       .  S
C140       C1081   1.455       .  S
O141        C154   1.272       .  A
O141       Co149   2.053       .  S
O142        C155   1.270       .  A
O142       Co150   2.043       .  S
O143        C156   1.270   1_655  A
O143       Co151   1.958       .  S
O144        C157   1.265   1_455  A
O144       Co152   1.948       .  S
O145        C157   1.280       .  A
O145       Co150   2.009       .  S
O146        C156   1.277       .  A
O146       Co149   1.993       .  S
O147        C154   1.268       .  A
O147       Co152   2.005       .  S
O148        C155   1.273       .  A
O148       Co151   2.021       .  S
Co149       O153   2.109       .  S
Co150       O153   2.105   1_655  S
Co151       O153   2.099   1_655  S
Co152       O153   2.099       .  S
C155        C638   1.519       .  S
C156       C1161   1.454       .  S
C157       C1074   1.457       .  S
C158        C159   1.395       .  A
C158        C163   1.393       .  A
C158       C1061   1.462       .  S
C159        C160   1.395       .  A
C159       C1090   1.459       .  S
C160        C161   1.393       .  A
C160       C1082   1.459       .  S
C161        C162   1.393       .  A
C161       C1065   1.461       .  S
C162        C163   1.396       .  A
C162       C1069   1.459       .  S
C163       C1057   1.457       .  S
O164        C172   1.272       .  A
O164       Co184   2.016       .  S
O165        C173   1.271       .  A
O165       Co185   2.011       .  S
O166        C174   1.277       .  A
O166       Co186   1.995       .  S
O167        C175   1.280       .  A
O167       Co187   2.008       .  S
O168        C174   1.264       .  A
O168       Co185   1.950       .  S
O169        C175   1.264       .  A
O169       Co184   1.947       .  S
O170        C173   1.267       .  A
O170       Co187   2.029       .  S
O171        C172   1.274       .  A
O171       Co186   2.057       .  S
C173        C405   1.502       .  S
C174       C1053   1.453       .  S
C175       C1070   1.456       .  S
O176        C189   1.273       .  A
O176       Co184   2.051       .  S
O177        C190   1.273       .  A
O177       Co185   2.053       .  S
O178        C191   1.266       .  A
O178       Co186   1.956       .  S
O179        C192   1.274       .  A
O179       Co187   1.973       .  S
O180        C192   1.275       .  A
O180       Co185   1.991       .  S
O181        C191   1.274       .  A
O181       Co184   1.985       .  S
O182        C189   1.274       .  A
O182       Co187   2.021       .  S
O183        C190   1.272       .  A
O183       Co186   2.018       .  S
Co184       O188   2.105       .  S
Co185       O188   2.103       .  S
Co186       O188   2.104       .  S
Co187       O188   2.108       .  S
C189        C777   1.521       .  S
C190        C702   1.521       .  S
C191       C1049   1.453       .  S
C192       C1045   1.464       .  S
C193        C194   1.393       .  A
C193        C198   1.394       .  A
C193       C1037   1.458       .  S
C194        C195   1.391       .  A
C194       C1054   1.458       .  S
C195        C196   1.395       .  A
C195       C1098   1.460       .  S
C196        C197   1.395       .  A
C196       C1033   1.457       .  S
C197        C198   1.396       .  A
C197       C1085   1.463       .  S
C198       C1041   1.459       .  S
O199        C207   1.269       .  A
O199       Co219   2.037       .  S
O200        C208   1.271       .  A
O200       Co220   2.047       .  S
O201        C209   1.266       .  A
O201       Co221   1.954       .  S
O202        C210   1.266       .  A
O202       Co222   1.952       .  S
O203        C209   1.278       .  A
O203       Co220   1.999       .  S
O204        C210   1.279       .  A
O204       Co219   2.009       .  S
O205        C208   1.268       .  A
O205       Co222   2.005       .  S
O206        C207   1.270       .  A
O206       Co221   2.016       .  S
C208        C639   1.510       .  S
C209       C1021   1.457       .  S
C210       C1030   1.459       .  S
O211        C224   1.272       .  A
O211       Co219   2.019       .  S
O212        C225   1.273       .  A
O212       Co220   2.027       .  S
O213        C226   1.278       .  A
O213       Co221   1.994       .  S
O214        C227   1.279       .  A
O214       Co222   1.997       .  S
O215        C227   1.267       .  A
O215       Co220   1.952       .  S
O216        C226   1.268       .  A
O216       Co219   1.956       .  S
O217        C224   1.270       .  A
O217       Co222   2.048       .  S
O218        C225   1.274       .  A
O218       Co221   2.061       .  S
Co219       O223   2.107       .  S
Co220       O223   2.109       .  S
Co221       O223   2.102       .  S
Co222       O223   2.103       .  S
C224        C434   1.520       .  S
C225        C719   1.534       .  S
C226       C1042   1.456       .  S
C227       C1025   1.454       .  S
C228        C229   1.396       .  A
C228        C233   1.393       .  A
C228       C1005   1.455       .  S
C229        C230   1.394       .  A
C229       C1150   1.457       .  S
C230        C231   1.392       .  A
C230       C1017   1.462       .  S
C231        C232   1.397       .  A
C231       C1013   1.460       .  S
C232        C233   1.391       .  A
C232       C1010   1.453       .  S
C233       C1001   1.466       .  S
O234        C242   1.269       .  A
O234       Co254   2.044       .  S
O235        C243   1.268       .  A
O235       Co255   2.038       .  S
O236        C244   1.267       .  A
O236       Co256   1.950       .  S
O237        C245   1.268       .  A
O237       Co257   1.954       .  S
O238        C244   1.281       .  A
O238       Co255   2.010       .  S
O239        C245   1.279       .  A
O239       Co254   2.002       .  S
O240        C243   1.269       .  A
O240       Co257   2.009       .  S
O241        C242   1.270       .  A
O241       Co256   2.018       .  S
C244        C989   1.456       .  S
C245        C993   1.457       .  S
O246        C259   1.269       .  A
O246       Co254   2.010       .  S
O247        C260   1.270       .  A
O247       Co255   2.017       .  S
O248        C261   1.281       .  A
O248       Co256   2.005       .  S
O249        C262   1.281       .  A
O249       Co257   2.007       .  S
O250        C262   1.268       .  A
O250       Co255   1.953       .  S
O251        C261   1.266       .  A
O251       Co254   1.950       .  S
O252        C259   1.267       .  A
O252       Co257   2.036       .  S
O253        C260   1.270       .  A
O253       Co256   2.045       .  S
Co254       O258   2.102       .  S
Co255       O258   2.106       .  S
Co256       O258   2.098       .  S
Co257       O258   2.101       .  S
C259        C656   1.507       .  S
C260        C603   1.519       .  S
C261       C1018   1.456       .  S
C262        C997   1.458       .  S
O263        C271   1.275       .  A
O263       Co283   2.027   1_655  S
O264        C272   1.273   1_655  A
O264       Co284   1.973       .  S
O265        C273   1.282       .  A
O265       Co285   1.981       .  S
O266        C274   1.281       .  A
O266       Co286   1.986       .  S
O267        C273   1.276       .  A
O267       Co284   1.962       .  S
O268        C274   1.266       .  A
O268       Co283   1.956       .  S
O269        C272   1.290       .  A
O269       Co286   2.138       .  S
O270        C271   1.274       .  A
O270       Co285   2.043       .  S
C272        C761   1.535       .  S
C273        C981   1.452       .  S
C274        C985   1.450       .  S
O275        C288   1.279       .  A
O275       Co283   2.046       .  S
O276        C289   1.278       .  A
O276       Co284   2.043       .  S
O277        C290   1.275   1_655  A
O277       Co285   1.973       .  S
O278        C291   1.284       .  A
O278       Co286   1.877       .  S
O279        C291   1.299       .  A
O279       Co284   2.096   1_455  S
O280        C290   1.276       .  A
O280       Co283   1.978       .  S
O281        C288   1.271       .  A
O281       Co286   2.006       .  S
O282        C289   1.275       .  A
O282       Co285   2.014       .  S
Co283       O287   2.031       .  S
Co284       O287   1.983   1_655  S
Co285       O287   2.021   1_655  S
Co286       O287   2.003       .  S
C288        C498   1.509       .  S
C289        C621   1.517       .  S
C290       C1122   1.458       .  S
C291        C977   1.462       .  S
C292        C293   1.392       .  A
C292        C297   1.392       .  A
C292        C970   1.459       .  S
C293        C294   1.393       .  A
C293        C961   1.457       .  S
C294        C295   1.391       .  A
C294        C986   1.455       .  S
C295        C296   1.398       .  A
C295        C957   1.465       .  S
C296        C297   1.396       .  A
C296        C973   1.456       .  S
C297        C965   1.459       .  S
O298        C306   1.270       .  A
O298       Co318   2.019   1_556  S
O299        C307   1.276       .  A
O299       Co319   2.033   1_554  S
O300        C308   1.273       .  A
O300       Co320   1.981       .  S
O301        C309   1.278       .  A
O301       Co321   1.995       .  S
O302        C308   1.271       .  A
O302       Co319   1.963       .  S
O303        C309   1.266       .  A
O303       Co318   1.951       .  S
O304        C307   1.274       .  A
O304       Co321   2.057       .  S
O305        C306   1.276       .  A
O305       Co320   2.064       .  S
C307        C469   1.535       .  S
C308        C954   1.453       .  S
C309        C974   1.453       .  S
O310        C323   1.270       .  A
O310       Co318   2.045       .  S
O311        C324   1.272       .  A
O311       Co319   2.052       .  S
O312        C325   1.264   1_556  A
O312       Co320   1.947       .  S
O313        C326   1.268   1_554  A
O313       Co321   1.956       .  S
O314        C326   1.278       .  A
O314       Co319   2.000       .  S
O315        C325   1.280       .  A
O315       Co318   2.006       .  S
O316        C323   1.274       .  A
O316       Co321   2.027       .  S
O317        C324   1.273       .  A
O317       Co320   2.019       .  S
Co318       O322   2.109   1_554  S
Co319       O322   2.109       .  S
Co320       O322   2.105       .  S
Co321       O322   2.105   1_554  S
C323        C778   1.522       .  S
C324        C703   1.522       .  S
C325        C946   1.455       .  S
C326        C950   1.458       .  S
C327        C328   1.397       .  A
C327        C332   1.403       .  A
C327        C953   1.454       .  S
C328        C329   1.379       .  A
C328       C1142   1.449       .  S
C329        C330   1.360       .  A
C329        C933   1.451       .  S
C330        C331   1.382       .  A
C330        C929   1.457       .  S
C331        C332   1.400       .  A
C331        C942   1.461       .  S
C332        C937   1.456       .  S
O333        C341   1.274       .  A
O333       Co353   2.040       .  S
O334        C342   1.291       .  A
O334       Co354   2.143       .  S
O335        C343   1.273       .  A
O335       Co355   1.972       .  S
O336        C344   1.277       .  A
O336       Co356   1.965       .  S
O337        C343   1.279       .  A
O337       Co354   1.980       .  S
O338        C344   1.283       .  A
O338       Co353   1.991       .  S
O339        C342   1.272       .  A
O339       Co356   1.955       .  S
O340        C341   1.277       .  A
O340       Co355   2.033       .  S
C341        C620   1.528       .  S
C342        C499   1.524       .  S
C343        C925   1.457       .  S
C344        C921   1.458       .  S
O345        C358   1.271       .  A
O345       Co353   2.016       .  S
O346        C359   1.276       .  A
O346       Co354   2.022       .  S
O347        C360   1.279       .  A
O347       Co355   1.982       .  S
O348        C361   1.297       .  A
O348       Co356   2.088       .  S
O349        C361   1.283       .  A
O349       Co354   1.872       .  S
O350        C360   1.270       .  A
O350       Co353   1.954       .  S
O351        C358   1.275       .  A
O351       Co356   2.046       .  S
O352        C359   1.275       .  A
O352       Co355   2.043       .  S
Co353       O357   2.025       .  S
Co354       O357   2.007       .  S
Co355       O357   2.043       .  S
Co356       O357   1.986       .  S
C358        C720   1.522       .  S
C359        C435   1.521       .  S
C360       C1009   1.449       .  S
C361        C941   1.450       .  S
O362        C370   1.272       .  A
O362       Co382   2.018   1_565  S
O363        C371   1.274       .  A
O363       Co383   2.023   1_545  S
O364        C372   1.280       .  A
O364       Co384   2.008       .  S
O365        C373   1.279       .  A
O365       Co385   1.998       .  S
O366        C372   1.265       .  A
O366       Co383   1.949       .  S
O367        C373   1.266       .  A
O367       Co382   1.951       .  S
O368        C371   1.272       .  A
O368       Co385   2.048       .  S
O369        C370   1.269       .  A
O369       Co384   2.043       .  S
C371        C515   1.522       .  S
C372       C1062   1.457       .  S
C373        C969   1.454       .  S
O374        C387   1.272       .  A
O374       Co382   2.049       .  S
O375        C388   1.274       .  A
O375       Co383   2.058       .  S
O376        C389   1.266   1_565  A
O376       Co384   1.952       .  S
O377        C390   1.270   1_545  A
O377       Co385   1.963       .  S
O378        C390   1.274       .  A
O378       Co383   1.978       .  S
O379        C389   1.278       .  A
O379       Co382   1.996       .  S
O380        C387   1.275       .  A
O380       Co385   2.028       .  S
O381        C388   1.268       .  A
O381       Co384   2.008       .  S
Co382       O386   2.101       .  S
Co383       O386   2.104   1_565  S
Co384       O386   2.103   1_565  S
Co385       O386   2.105       .  S
C387        C486   1.525       .  S
C388        C422   1.519       .  S
C389        C913   1.454       .  S
C390        C918   1.454       .  S
C391        C392   1.394       .  A
C391        C396   1.393       .  A
C391        C926   1.462       .  S
C392        C393   1.394   1_545  A
C392        C905   1.453       .  S
C393        C394   1.391       .  A
C393        C897   1.464       .  S
C394        C395   1.396       .  A
C394        C909   1.459       .  S
C395        C396   1.397   1_565  A
C395        C917   1.453       .  S
C396        C901   1.466       .  S
O397        C405   1.265       .  A
O397       Co417   1.997       .  S
O398        C406   1.274       .  A
O398       Co418   2.022       .  S
O399        C407   1.273       .  A
O399       Co419   1.993       .  S
O400        C408   1.279       .  A
O400       Co420   2.003       .  S
O401        C407   1.274       .  A
O401       Co418   1.968       .  S
O402        C408   1.264       .  A
O402       Co417   1.946       .  S
O403        C406   1.269       .  A
O403       Co420   2.037       .  S
O404        C405   1.271       .  A
O404       Co419   2.044       .  S
C406        C749   1.514       .  S
C407        C889   1.452       .  S
C408        C910   1.453       .  S
O409        C422   1.269       .  A
O409       Co417   2.045       .  S
O410        C423   1.270       .  A
O410       Co418   2.043       .  S
O411        C424   1.264       .  A
O411       Co419   1.945       .  S
O412        C425   1.267       .  A
O412       Co420   1.950       .  S
O413        C425   1.280       .  A
O413       Co418   2.002       .  S
O414        C424   1.280       .  A
O414       Co417   2.004       .  S
O415        C422   1.272       .  A
O415       Co420   2.021       .  S
O416        C423   1.271       .  A
O416       Co419   2.014       .  S
Co417       O421   2.100       .  S
Co418       O421   2.105       .  S
Co419       O421   2.104       .  S
Co420       O421   2.103       .  S
C423        C533   1.514       .  S
C424       C1058   1.453       .  S
C425        C893   1.455       .  S
O426        C434   1.268       .  A
O426       Co446   2.012       .  S
O427        C435   1.274       .  A
O427       Co447   2.030       .  S
O428        C436   1.278       .  A
O428       Co448   1.986       .  S
O429        C437   1.280       .  A
O429       Co449   1.997       .  S
O430        C436   1.273   1_545  A
O430       Co447   1.964       .  S
O431        C437   1.266   1_565  A
O431       Co446   1.947       .  S
O432        C435   1.268       .  A
O432       Co449   2.039       .  S
O433        C434   1.272       .  A
O433       Co448   2.055       .  S
C436        C885   1.456       .  S
C437        C906   1.451       .  S
O438        C451   1.267       .  A
O438       Co446   2.034       .  S
O439        C452   1.266       .  A
O439       Co447   2.024       .  S
O440        C453   1.264       .  A
O440       Co448   1.946       .  S
O441        C454   1.266       .  A
O441       Co449   1.948       .  S
O442        C454   1.282       .  A
O442       Co447   2.017       .  S
O443        C453   1.281       .  A
O443       Co446   2.012       .  S
O444        C451   1.266       .  A
O444       Co449   1.999   1_565  S
O445        C452   1.268       .  A
O445       Co448   2.006   1_545  S
Co446       O450   2.106       .  S
Co447       O450   2.108   1_545  S
Co448       O450   2.094       .  S
Co449       O450   2.091   1_545  S
C451        C732   1.499       .  S
C452        C691   1.497       .  S
C453        C881   1.457       .  S
C454       C1002   1.459       .  S
C455        C456   1.393       .  A
C455        C460   1.396   1_565  A
C455        C886   1.457       .  S
C456        C457   1.394   1_556  A
C456       C1029   1.464       .  S
C457        C458   1.396   1_565  A
C457       C1094   1.461       .  S
C458        C459   1.395       .  A
C458        C914   1.457       .  S
C459        C460   1.397   1_554  A
C459        C877   1.466       .  S
C460        C873   1.462       .  S
O461        C469   1.275       .  A
O461       Co481   2.033       .  S
O462        C470   1.274       .  A
O462       Co482   2.016       .  S
O463        C471   1.278       .  A
O463       Co483   2.002       .  S
O464        C472   1.279       .  A
O464       Co484   2.006       .  S
O465        C471   1.266       .  A
O465       Co482   1.955       .  S
O466        C472   1.269       .  A
O466       Co481   1.959       .  S
O467        C470   1.268       .  A
O467       Co484   2.043       .  S
O468        C469   1.274       .  A
O468       Co483   2.057       .  S
C470        C674   1.515       .  S
C471        C866   1.458       .  S
C472        C878   1.461       .  S
O473        C486   1.273       .  A
O473       Co481   2.052       .  S
O474        C487   1.273       .  A
O474       Co482   2.056       .  S
O475        C488   1.266       .  A
O475       Co483   1.953       .  S
O476        C489   1.271       .  A
O476       Co484   1.963       .  S
O477        C489   1.276       .  A
O477       Co482   1.992       .  S
O478        C488   1.278       .  A
O478       Co481   1.997       .  S
O479        C486   1.273       .  A
O479       Co484   2.023       .  S
O480        C487   1.272       .  A
O480       Co483   2.022       .  S
Co481       O485   2.109       .  S
Co482       O485   2.106       .  S
Co483       O485   2.107       .  S
Co484       O485   2.114       .  S
C487        C534   1.528       .  S
C488        C966   1.456       .  S
C489        C870   1.458       .  S
O490        C498   1.269       .  A
O490       Co510   2.012       .  S
O491        C499   1.282       .  A
O491       Co511   2.067       .  S
O492        C500   1.289       .  A
O492       Co512   1.925       .  S
O493        C501   1.268       .  A
O493       Co513   1.944       .  S
O494        C500   1.283       .  A
O494       Co511   2.059       .  S
O495        C501   1.284       .  A
O495       Co510   2.001       .  S
O496        C499   1.266       .  A
O496       Co513   2.016       .  S
O497        C498   1.283       .  A
O497       Co512   2.036       .  S
C500        C930   1.462       .  S
C501        C962   1.451       .  S
O502        C515   1.275       .  A
O502       Co510   2.026       .  S
O503        C516   1.275       .  A
O503       Co511   1.985       .  S
O504        C517   1.274       .  A
O504       Co512   1.964       .  S
O505        C518   1.286       .  A
O505       Co513   2.009       .  S
O506        C518   1.274       .  A
O506       Co511   1.953       .  S
O507        C517   1.279       .  A
O507       Co510   1.977       .  S
O508        C515   1.272       .  A
O508       Co513   2.037       .  S
O509        C516   1.290       .  A
O509       Co512   2.149       .  S
Co510       O514   2.025       .  S
Co511       O514   1.983       .  S
Co512       O514   2.023       .  S
Co513       O514   2.018       .  S
C516        C575   1.547       .  S
C517       C1114   1.441       .  S
C518        C902   1.459       .  S
C519        C520   1.394       .  A
C519        C524   1.395       .  A
C519       C1130   1.461       .  S
C520        C521   1.393       .  A
C520       C1078   1.458       .  S
C521        C522   1.395       .  A
C521        C857   1.460       .  S
C522        C523   1.395       .  A
C522        C861   1.461       .  S
C523        C524   1.394       .  A
C523        C894   1.458       .  S
C524        C853   1.461       .  S
O525        C533   1.272       .  A
O525       Co545   2.049       .  S
O526        C534   1.273       .  A
O526       Co546   2.054       .  S
O527        C535   1.267       .  A
O527       Co547   1.959       .  S
O528        C536   1.270       .  A
O528       Co548   1.963       .  S
O529        C535   1.276       .  A
O529       Co546   1.994       .  S
O530        C536   1.275       .  A
O530       Co545   1.994       .  S
O531        C534   1.274       .  A
O531       Co548   2.027       .  S
O532        C533   1.270       .  A
O532       Co547   2.010       .  S
C535        C842   1.458       .  S
C536        C845   1.458       .  S
O537        C550   1.271       .  A
O537       Co545   2.022       .  S
O538        C551   1.268       .  A
O538       Co546   2.008       .  S
O539        C552   1.279       .  A
O539       Co547   2.005       .  S
O540        C553   1.279       .  A
O540       Co548   2.002       .  S
O541        C553   1.261       .  A
O541       Co546   1.939       .  S
O542        C552   1.265       .  A
O542       Co545   1.949       .  S
O543        C550   1.274       .  A
O543       Co548   2.056       .  S
O544        C551   1.271       .  A
O544       Co547   2.048       .  S
Co545       O549   2.108       .  S
Co546       O549   2.103       .  S
Co547       O549   2.110       .  S
Co548       O549   2.105       .  S
C550        C604   1.526       .  S
C551        C655   1.513       .  S
C552        C862   1.456       .  S
C553        C849   1.450       .  S
C554        C555   1.377       .  A
C554        C559   1.393       .  A
C554        C982   1.455       .  S
C555        C556   1.382       .  A
C555       C1134   1.461       .  S
C556        C557   1.391       .  A
C556        C834   1.460       .  S
C557        C558   1.398       .  A
C557        C869   1.460       .  S
C558        C559   1.399       .  A
C558        C850   1.452       .  S
C559        C837   1.455       .  S
C560        C561   1.394       .  A
C560        C565   1.394       .  A
C560        C829   1.459       .  S
C561        C562   1.394       .  A
C561        C998   1.461       .  S
C562        C563   1.395       .  A
C562       C1106   1.459       .  S
C563        C564   1.395       .  A
C563        C826   1.459       .  S
C564        C565   1.392       .  A
C564        C882   1.461       .  S
C565       C1026   1.458       .  S
O566        C574   1.279       .  A
O566       Co586   2.026   1_565  S
O567        C575   1.276       .  A
O567       Co587   2.045   1_545  S
O568        C576   1.279       .  A
O568       Co588   1.990       .  S
O569        C577   1.303       .  A
O569       Co589   2.086       .  S
O570        C576   1.268       .  A
O570       Co587   1.956       .  S
O571        C577   1.282       .  A
O571       Co586   1.868       .  S
O572        C575   1.285       .  A
O572       Co589   2.073       .  S
O573        C574   1.273       .  A
O573       Co588   2.036       .  S
C576       C1034   1.453       .  S
C577        C934   1.446       .  S
O578        C591   1.296       .  A
O578       Co586   2.160       .  S
O579        C592   1.281       .  A
O579       Co587   2.058       .  S
O580        C593   1.267       .  A
O580       Co588   1.972       .  S
O581        C594   1.279       .  A
O581       Co589   1.986       .  S
O582        C594   1.278   1_565  A
O582       Co587   1.992       .  S
O583        C593   1.269   1_545  A
O583       Co586   1.953       .  S
O584        C591   1.276       .  A
O584       Co589   1.968       .  S
O585        C592   1.266       .  A
O585       Co588   1.986       .  S
Co586       O590   2.003   1_545  S
Co587       O590   2.035       .  S
Co588       O590   2.043       .  S
Co589       O590   1.979   1_545  S
C593       C1157   1.446   1_565  S
C594       C1118   1.475   1_545  S
O595        C603   1.274       .  A
O595       Co615   2.022       .  S
O596        C604   1.280       .  A
O596       Co616   2.035       .  S
O597        C605   1.272       .  A
O597       Co617   1.976       .  S
O598        C606   1.274       .  A
O598       Co618   1.983       .  S
O599        C605   1.275       .  A
O599       Co616   1.976       .  S
O600        C606   1.271       .  A
O600       Co615   1.965       .  S
O601        C604   1.273       .  A
O601       Co618   2.047       .  S
O602        C603   1.272       .  A
O602       Co617   2.048       .  S
C605        C821   1.461       .  S
C606        C817   1.455       .  S
O607        C620   1.272       .  A
O607       Co615   2.044       .  S
O608        C621   1.273       .  A
O608       Co616   2.053       .  S
O609        C622   1.265       .  A
O609       Co617   1.950       .  S
O610        C623   1.270       .  A
O610       Co618   1.960       .  S
O611        C623   1.275       .  A
O611       Co616   1.985       .  S
O612        C622   1.279       .  A
O612       Co615   2.003       .  S
O613        C620   1.279       .  A
O613       Co618   2.037       .  S
O614        C621   1.275       .  A
O614       Co617   2.014       .  S
Co615       O619   2.101       .  S
Co616       O619   2.110       .  S
Co617       O619   2.102       .  S
Co618       O619   2.106       .  S
C622       C1014   1.456       .  S
C623        C838   1.453       .  S
C624        C625   1.400       .  A
C624        C629   1.392       .  A
C624        C822   1.458       .  S
C625        C626   1.396   1_655  A
C625        C990   1.462       .  S
C626        C627   1.393       .  A
C626       C1102   1.458       .  S
C627        C628   1.390       .  A
C627       C1050   1.455       .  S
C628        C629   1.386   1_455  A
C628        C814   1.457       .  S
C629        C978   1.469       .  S
O630        C638   1.271       .  A
O630       Co650   2.050       .  S
O631        C639   1.267       .  A
O631       Co651   2.039       .  S
O632        C640   1.265       .  A
O632       Co652   1.948       .  S
O633        C641   1.265       .  A
O633       Co653   1.948       .  S
O634        C640   1.280       .  A
O634       Co651   2.005       .  S
O635        C641   1.280       .  A
O635       Co650   2.002       .  S
O636        C639   1.268       .  A
O636       Co653   2.010   1_556  S
O637        C638   1.269       .  A
O637       Co652   2.015   1_554  S
C640        C830   1.455       .  S
C641        C858   1.455       .  S
O642        C655   1.268       .  A
O642       Co650   2.011       .  S
O643        C656   1.265       .  A
O643       Co651   1.998       .  S
O644        C657   1.278       .  A
O644       Co652   2.000       .  S
O645        C658   1.280       .  A
O645       Co653   2.008       .  S
O646        C658   1.265   1_556  A
O646       Co651   1.947       .  S
O647        C657   1.266   1_554  A
O647       Co650   1.951       .  S
O648        C655   1.269       .  A
O648       Co653   2.043       .  S
O649        C656   1.270       .  A
O649       Co652   2.047       .  S
Co650       O654   2.100   1_554  S
Co651       O654   2.101       .  S
Co652       O654   2.108       .  S
Co653       O654   2.106   1_554  S
C657        C805   1.455       .  S
C658        C809   1.456       .  S
C659        C660   1.396       .  A
C659        C664   1.394       .  A
C659        C841   1.461       .  S
C660        C661   1.395   1_554  A
C660        C810   1.461       .  S
C661        C662   1.395       .  A
C661       C1022   1.460       .  S
C662        C663   1.396       .  A
C662        C801   1.461       .  S
C663        C664   1.396   1_556  A
C663        C949   1.461       .  S
C664        C865   1.462       .  S
O665        C673   1.286       .  A
O665       Co685   2.048   1_556  S
O666        C674   1.270       .  A
O666       Co686   2.003   1_554  S
O667        C675   1.284       .  A
O667       Co687   1.999       .  S
O668        C676   1.296       .  A
O668       Co688   2.089       .  S
O669        C675   1.270       .  A
O669       Co686   1.950       .  S
O670        C676   1.285       .  A
O670       Co685   1.884       .  S
O671        C674   1.279       .  A
O671       Co688   2.052       .  S
O672        C673   1.269       .  A
O672       Co687   2.019       .  S
C675       C1006   1.452       .  S
C676        C833   1.458       .  S
O677        C690   1.294       .  A
O677       Co685   2.158       .  S
O678        C691   1.269       .  A
O678       Co686   2.021       .  S
O679        C692   1.275   1_556  A
O679       Co687   1.968       .  S
O680        C693   1.273   1_554  A
O680       Co688   1.960       .  S
O681        C693   1.282       .  A
O681       Co686   1.994       .  S
O682        C692   1.272       .  A
O682       Co685   1.965       .  S
O683        C690   1.272       .  A
O683       Co688   1.962       .  S
O684        C691   1.269       .  A
O684       Co687   2.007       .  S
Co685       O689   1.992   1_554  S
Co686       O689   2.023       .  S
Co687       O689   2.027       .  S
Co688       O689   1.980   1_554  S
C692       C1153   1.439       .  S
C693        C874   1.457       .  S
O694        C702   1.271       .  A
O694       Co714   2.045       .  S
O695        C703   1.272       .  A
O695       Co715   2.054       .  S
O696        C704   1.271       .  A
O696       Co716   1.964       .  S
O697        C705   1.266       .  A
O697       Co717   1.949       .  S
O698        C704   1.276       .  A
O698       Co715   1.989       .  S
O699        C705   1.279       .  A
O699       Co714   2.001       .  S
O700        C703   1.270       .  A
O700       Co717   2.015       .  S
O701        C702   1.274       .  A
O701       Co716   2.024       .  S
C704        C938   1.461       .  S
C705       C1038   1.454       .  S
O706        C719   1.276       .  A
O706       Co714   2.034       .  S
O707        C720   1.274       .  A
O707       Co715   2.018       .  S
O708        C721   1.277       .  A
O708       Co716   1.995       .  S
O709        C722   1.279       .  A
O709       Co717   2.001       .  S
O710        C722   1.267       .  A
O710       Co715   1.953       .  S
O711        C721   1.272       .  A
O711       Co714   1.964       .  S
O712        C719   1.272       .  A
O712       Co717   2.054       .  S
O713        C720   1.271       .  A
O713       Co716   2.052       .  S
Co714       O718   2.107       .  S
Co715       O718   2.102       .  S
Co716       O718   2.115       .  S
Co717       O718   2.106       .  S
C721        C797   1.459       .  S
C722        C802   1.457       .  S
O723        C731   1.270       .  A
O723       Co743   2.046       .  S
O724        C732   1.268       .  A
O724       Co744   2.038       .  S
O725        C733   1.266       .  A
O725       Co745   1.950       .  S
O726        C734   1.262       .  A
O726       Co746   1.943       .  S
O727        C733   1.281       .  A
O727       Co744   2.013       .  S
O728        C734   1.279       .  A
O728       Co743   2.003       .  S
O729        C732   1.263       .  A
O729       Co746   1.995       .  S
O730        C731   1.268       .  A
O730       Co745   2.012       .  S
C733        C898   1.459       .  S
C734       C1110   1.451       .  S
O735        C748   1.267       .  A
O735       Co743   2.006       .  S
O736        C749   1.267       .  A
O736       Co744   2.010       .  S
O737        C750   1.280       .  A
O737       Co745   2.008       .  S
O738        C751   1.279       .  A
O738       Co746   2.005       .  S
O739        C751   1.265       .  A
O739       Co744   1.949       .  S
O740        C750   1.263       .  A
O740       Co743   1.943       .  S
O741        C748   1.269       .  A
O741       Co746   2.048       .  S
O742        C749   1.270       .  A
O742       Co745   2.047       .  S
Co743       O747   2.102       .  S
Co744       O747   2.108       .  S
Co745       O747   2.103       .  S
Co746       O747   2.104       .  S
C750        C854   1.455       .  S
C751        C825   1.456       .  S
O752        C760   1.268       .  A
O752       Co772   2.005       .  S
O753        C761   1.268       .  A
O753       Co773   2.028       .  S
O754        C762   1.276       .  A
O754       Co774   1.998       .  S
O755        C763   1.274       .  A
O755       Co775   1.977       .  S
O756        C762   1.263       .  A
O756       Co773   1.951       .  S
O757        C763   1.263       .  A
O757       Co772   1.953       .  S
O758        C761   1.278       .  A
O758       Co775   2.074       .  S
O759        C760   1.273       .  A
O759       Co774   2.052       .  S
C762        C793   1.455       .  S
C763        C813   1.449       .  S
O764        C777   1.273       .  A
O764       Co772   2.049       .  S
O765        C778   1.275       .  A
O765       Co773   2.059       .  S
O766        C779   1.264       .  A
O766       Co774   1.952       .  S
O767        C780   1.262       .  A
O767       Co775   1.944       .  S
O768        C780   1.280       .  A
O768       Co773   2.020       .  S
O769        C779   1.277       .  A
O769       Co772   1.999       .  S
O770        C777   1.273       .  A
O770       Co775   2.022       .  S
O771        C778   1.270       .  A
O771       Co774   2.013       .  S
Co772       O776   2.110       .  S
Co773       O776   2.108       .  S
Co774       O776   2.108       .  S
Co775       O776   2.102       .  S
C779       C1066   1.456       .  S
C780        C958   1.460       .  S
C781        C782   1.402       .  A
C781        C786   1.396       .  A
C781        C922   1.468       .  S
C782        C783   1.402       .  A
C782        C798   1.465       .  S
C783        C784   1.394       .  A
C783       C1046   1.465       .  S
C784        C785   1.387       .  A
C784        C890   1.470       .  S
C785        C786   1.395       .  A
C785        C846   1.464       .  S
C786        C818   1.460       .  S
C787        C788   1.394   1_655  A
C787        C792   1.395       .  A
C787        C994   1.461       .  S
C788        C789   1.393   1_556  A
C788       C1146   1.459       .  S
C789        C790   1.394       .  A
C789        C945   1.459       .  S
C790        C791   1.394   1_455  A
C790        C794   1.459       .  S
C791        C792   1.395   1_554  A
C791       C1073   1.462       .  S
C792        C806   1.458       .  S
C793        C794   1.336       .  D
C793        H795   1.088   1_455  S
C794        H796   1.087       .  S
C797        C798   1.346       .  D
C797        H799   1.088       .  S
C798        H800   1.086       .  S
C801        C802   1.337       .  D
C801        H803   1.087       .  S
C802        H804   1.088       .  S
C805        C806   1.337       .  D
C805        H807   1.088   1_556  S
C806        H808   1.087       .  S
C809        C810   1.336       .  D
C809        H811   1.088   1_554  S
C810        H812   1.087       .  S
C813        C814   1.338       .  D
C813        H815   1.087   1_455  S
C814        H816   1.087       .  S
C817        C818   1.345       .  D
C817        H819   1.088       .  S
C818        H820   1.087       .  S
C821        C822   1.350       .  D
C821        H823   1.087       .  S
C822        H824   1.086       .  S
C825        C826   1.336       .  D
C825        H827   1.088       .  S
C826        H828   1.087       .  S
C829        C830   1.336       .  D
C829        H831   1.087       .  S
C830        H832   1.088       .  S
C833        C834   1.355       .  D
C833        H835   1.087       .  S
C834        H836   1.086       .  S
C837        C838   1.341       .  D
C837        H839   1.087       .  S
C838        H840   1.088       .  S
C841        C842   1.339       .  D
C841        H843   1.087       .  S
C842        H844   1.087       .  S
C845        C846   1.345       .  D
C845        H847   1.088       .  S
C846        H848   1.086       .  S
C849        C850   1.330       .  D
C849        H851   1.088       .  S
C850        H852   1.087       .  S
C853        C854   1.334       .  D
C853        H855   1.087       .  S
C854        H856   1.088       .  S
C857        C858   1.335       .  D
C857        H859   1.087       .  S
C858        H860   1.088       .  S
C861        C862   1.336       .  D
C861        H863   1.087       .  S
C862        H864   1.088       .  S
C865        C866   1.337       .  D
C865        H867   1.087       .  S
C866        H868   1.088   1_554  S
C869        C870   1.342       .  D
C869        H871   1.087       .  S
C870        H872   1.087       .  S
C873        C874   1.339       .  D
C873        H875   1.087       .  S
C874        H876   1.087   1_546  S
C877        C878   1.341       .  D
C877        H879   1.087       .  S
C878        H880   1.088   1_554  S
C881        C882   1.335       .  D
C881        H883   1.088       .  S
C882        H884   1.087       .  S
C885        C886   1.342       .  D
C885        H887   1.087   1_565  S
C886        H888   1.087       .  S
C889        C890   1.323       .  D
C889        H891   1.086       .  S
C890        H892   1.088       .  S
C893        C894   1.335       .  D
C893        H895   1.088       .  S
C894        H896   1.087       .  S
C897        C898   1.337       .  D
C897        H899   1.087       .  S
C898        H900   1.088   1_565  S
C901        C902   1.340       .  D
C901        H903   1.087       .  S
C902        H904   1.087   1_545  S
C905        C906   1.334       .  D
C905        H907   1.087       .  S
C906        H908   1.088       .  S
C909        C910   1.334       .  D
C909        H911   1.087       .  S
C910        H912   1.088       .  S
C913        C914   1.336       .  D
C913        H915   1.088   1_545  S
C914        H916   1.087       .  S
C917        C918   1.342       .  D
C917        H919   1.087       .  S
C918        H920   1.088       .  S
C921        C922   1.340       .  D
C921        H923   1.087       .  S
C922        H924   1.088       .  S
C925        C926   1.340       .  D
C925        H927   1.088       .  S
C926        H928   1.087       .  S
C929        C930   1.363       .  D
C929        H931   1.085       .  S
C930        H932   1.085       .  S
C933        C934   1.341       .  D
C933        H935   1.087       .  S
C934        H936   1.088       .  S
C937        C938   1.342       .  D
C937        H939   1.087       .  S
C938        H940   1.087       .  S
C941        C942   1.351       .  D
C941        H943   1.087       .  S
C942        H944   1.087       .  S
C945        C946   1.334       .  D
C945        H947   1.087       .  S
C946        H948   1.088   1_554  S
C949        C950   1.339       .  D
C949        H951   1.087       .  S
C950        H952   1.088       .  S
C953        C954   1.344       .  D
C953        H955   1.087       .  S
C954        H956   1.088       .  S
C957        C958   1.334       .  D
C957        H959   1.087       .  S
C958        H960   1.088       .  S
C961        C962   1.331       .  D
C961        H963   1.087       .  S
C962        H964   1.089       .  S
C965        C966   1.336       .  D
C965        H967   1.087       .  S
C966        H968   1.088       .  S
C969        C970   1.335       .  D
C969        H971   1.088       .  S
C970        H972   1.087       .  S
C973        C974   1.336       .  D
C973        H975   1.087       .  S
C974        H976   1.088       .  S
C977        C978   1.351   1_455  D
C977        H979   1.088       .  S
C978        H980   1.087       .  S
C981        C982   1.341       .  D
C981        H983   1.088       .  S
C982        H984   1.086       .  S
C985        C986   1.331       .  D
C985        H987   1.089       .  S
C986        H988   1.087       .  S
C989        C990   1.337       .  D
C989        H991   1.088   1_655  S
C990        H992   1.087       .  S
C993        C994   1.338       .  D
C993        H995   1.088   1_655  S
C994        H996   1.087       .  S
C997        C998   1.338       .  D
C997        H999   1.088       .  S
C998       H1000   1.087       .  S
C1001      C1002   1.336       .  D
C1001      H1003   1.087       .  S
C1002      H1004   1.088       .  S
C1005      C1006   1.333       .  D
C1005      H1007   1.087       .  S
C1006      H1008   1.088       .  S
C1009      C1010   1.336       .  D
C1009      H1011   1.088       .  S
C1010      H1012   1.087       .  S
C1013      C1014   1.335       .  D
C1013      H1015   1.087       .  S
C1014      H1016   1.088       .  S
C1017      C1018   1.337       .  D
C1017      H1019   1.087       .  S
C1018      H1020   1.088       .  S
C1021      C1022   1.338       .  D
C1021      H1023   1.088   1_556  S
C1022      H1024   1.087       .  S
C1025      C1026   1.336       .  D
C1025      H1027   1.088       .  S
C1026      H1028   1.087       .  S
C1029      C1030   1.337       .  D
C1029      H1031   1.087       .  S
C1030      H1032   1.088   1_556  S
C1033      C1034   1.336       .  D
C1033      H1035   1.087       .  S
C1034      H1036   1.088       .  S
C1037      C1038   1.335       .  D
C1037      H1039   1.087       .  S
C1038      H1040   1.088       .  S
C1041      C1042   1.338       .  D
C1041      H1043   1.087       .  S
C1042      H1044   1.088       .  S
C1045      C1046   1.348       .  D
C1045      H1047   1.087       .  S
C1046      H1048   1.086       .  S
C1049      C1050   1.340       .  D
C1049      H1051   1.088       .  S
C1050      H1052   1.087       .  S
C1053      C1054   1.336       .  D
C1053      H1055   1.088       .  S
C1054      H1056   1.087       .  S
C1057      C1058   1.334       .  D
C1057      H1059   1.087       .  S
C1058      H1060   1.088       .  S
C1061      C1062   1.335       .  D
C1061      H1063   1.087       .  S
C1062      H1064   1.088       .  S
C1065      C1066   1.336       .  D
C1065      H1067   1.087       .  S
C1066      H1068   1.088       .  S
C1069      C1070   1.335       .  D
C1069      H1071   1.087       .  S
C1070      H1072   1.088       .  S
C1073      C1074   1.336       .  D
C1073      H1075   1.087       .  S
C1074      H1076   1.088   1_654  S
C1077      C1078   1.336       .  D
C1077      H1079   1.088       .  S
C1078      H1080   1.087       .  S
C1081      C1082   1.337       .  D
C1081      H1083   1.088       .  S
C1082      H1084   1.087       .  S
C1085      C1086   1.337       .  D
C1085      H1087   1.087       .  S
C1086      H1088   1.088       .  S
C1089      C1090   1.336       .  D
C1089      H1091   1.088       .  S
C1090      H1092   1.087       .  S
C1093      C1094   1.337       .  D
C1093      H1095   1.088   1_564  S
C1094      H1096   1.087       .  S
C1097      C1098   1.332       .  D
C1097      H1099   1.088       .  S
C1098      H1100   1.087       .  S
C1101      C1102   1.334       .  D
C1101      H1103   1.088   1_455  S
C1102      H1104   1.087       .  S
C1105      C1106   1.337       .  D
C1105      H1107   1.088       .  S
C1106      H1108   1.087       .  S
C1109      C1110   1.331       .  D
C1109      H1111   1.087       .  S
C1110      H1112   1.088   1_565  S
C1113      C1114   1.316       .  D
C1113      H1115   1.089   1_545  S
C1114      H1116   1.087       .  S
C1117      C1118   1.351       .  D
C1117      H1119   1.087       .  S
C1118      H1120   1.087   1_565  S
C1121      C1122   1.345       .  D
C1121      H1123   1.087       .  S
C1122      H1124   1.088   1_455  S
C1125      C1126   1.346       .  D
C1125      H1127   1.086       .  S
C1126      H1128   1.088       .  S
C1129      C1130   1.336       .  D
C1129      H1131   1.088       .  S
C1130      H1132   1.087       .  S
C1133      C1134   1.322       .  D
C1133      H1135   1.085       .  S
C1134      H1136   1.091       .  S
C1137      C1138   1.338       .  D
C1137      H1139   1.088   1_655  S
C1138      H1140   1.087       .  S
C1141      C1142   1.338       .  D
C1141      H1143   1.087       .  S
C1142      H1144   1.086       .  S
C1145      C1146   1.337       .  D
C1145      H1147   1.088   1_456  S
C1146      H1148   1.087       .  S
C1149      C1150   1.335       .  D
C1149      H1151   1.088       .  S
C1150      H1152   1.087       .  S
C1153      C1154   1.316   1_554  D
C1153      H1155   1.089       .  S
C1154      H1156   1.089   1_545  S
C1157      C1158   1.340       .  D
C1157      H1159   1.088   1_445  S
C1158      H1160   1.087       .  S
C1161      C1162   1.341       .  D
C1161      H1163   1.088   1_554  S
C1162      H1164   1.087       .  S
C1165      C1166   1.331       .  D
C1165      H1167   1.087       .  S
C1166      H1168   1.088   1_566  S
C1169      C1170   1.343       .  D
C1169      H1171   1.086       .  S
C1170      H1172   1.088   1_565  S
C1173      C1174   1.345       .  D
C1173      H1175   1.086       .  S
C1174      H1176   1.088   1_556  S
