geometry optimzed in LAMMPS
_audit_creation_date              2020-11-30 
_audit_creation_method            'lammps2cif' 
_symmetry_space_group_name_H-M    'P1' 
_symmetry_Int_Tables_number       1 
_symmetry_cell_setting            triclinic 
loop_ 
_symmetry_equiv_pos_as_xyz 
  x,y,z 
_cell_length_a                    41.67350603 
_cell_length_b                    44.498276374730175 
_cell_length_c                    34.74548766108715 
_cell_angle_alpha                 90.00817371520105 
_cell_angle_beta                  90.14676028754528 
_cell_angle_gamma                 89.78778844450045 
loop_ 
_atom_site_label 
_atom_site_type_symbol 
_atom_site_fract_x 
_atom_site_fract_y 
_atom_site_fract_z 
_atom_site_charge 
C1          C  0.71275558  0.24780996  0.45929579     0.30200
C2          C  0.71351051  0.24649284  0.03834463     0.30200
C3          C  0.68015990  0.24826403  0.47947730    -0.06000
C4          C  0.72947187  0.22027963  0.47769978    -0.06800
C5          C  0.73063294  0.27376386  0.47962052    -0.06600
C6          C  0.68044258  0.24639063  0.01909325    -0.06000
C7          C  0.73046796  0.21943456  0.01906885    -0.06800
C8          C  0.73020875  0.27298433  0.01788265    -0.06700
C9          C  0.64913266  0.24790726  0.03127270    -0.32000
N10         N  0.63003683  0.24788711  0.99967297     0.14500
C11         C  0.64862623  0.25054367  0.46819938    -0.32000
H12         H  0.63966382  0.25205818  0.43898936     0.16400
C13         C  0.74903205  0.19522904  0.03063485    -0.31000
N14         N  0.75909535  0.18112855  0.49635838     0.13200
C15         C  0.74780682  0.19628719  0.46513605    -0.31000
C16         C  0.74877848  0.29721270  0.02838737    -0.31300
N17         N  0.75946499  0.31215637  0.50145109     0.13700
H18         H  0.75490759  0.30387284  0.05738674     0.16300
C19         C  0.74901744  0.29809320  0.46906913    -0.31300
H20         H  0.75443587  0.30526477  0.44011194     0.16300
H21         H  0.75266293  0.19033503  0.43554586     0.16300
H22         H  0.64080165  0.24902118  0.06072481     0.16400
H23         H  0.75454045  0.18880695  0.05993161     0.16300
C24         C  0.70957749  0.24594722  0.20917529     0.30200
C25         C  0.70884169  0.24634138  0.28869497     0.30200
C26         C  0.67730124  0.25303790  0.22828812    -0.06000
C27         C  0.71981779  0.21635187  0.22923918    -0.06800
C28         C  0.73205091  0.26878393  0.22896586    -0.06600
C29         C  0.67695623  0.25321833  0.26842267    -0.06000
C30         C  0.71943404  0.21656287  0.26955830    -0.06800
C31         C  0.73166338  0.26889652  0.26925243    -0.06700
C32         C  0.64585096  0.25860834  0.27964222    -0.32000
N33         N  0.62760221  0.26200285  0.24755170     0.14500
C34         C  0.64635912  0.25838220  0.21603253    -0.32000
H35         H  0.63783997  0.25834433  0.18657703     0.16400
C36         C  0.73731493  0.19202666  0.28149876    -0.31000
N37         N  0.74743117  0.17634430  0.25025295     0.13200
C38         C  0.73795409  0.19170673  0.21840788    -0.31000
C39         C  0.75071504  0.29234398  0.28107603    -0.31300
N40         N  0.76188463  0.30694093  0.24956759     0.13700
H41         H  0.75537911  0.29909593  0.31042860     0.16300
C42         C  0.75127148  0.29236246  0.21765206    -0.31300
H43         H  0.75569925  0.29961629  0.18846097     0.16300
H44         H  0.74517259  0.18619030  0.18944739     0.16300
H45         H  0.63686157  0.25882048  0.30885234     0.16400
H46         H  0.74461909  0.18715319  0.31070978     0.16300
C47         C  0.85711546  0.99501296  0.45907279     0.30200
C48         C  0.85353259  0.99487069  0.03843930     0.30200
C49         C  0.88417390  0.50365472  0.47993943    -0.06000
C50         C  0.84118628  0.02270661  0.47789513    -0.06800
C51         C  0.84025731  0.46926000  0.48087957    -0.06600
C52         C  0.88829892  0.50035125  0.02139781    -0.06000
C53         C  0.83135973  0.01825931  0.01880690    -0.06800
C54         C  0.84366726  0.46675830  0.01895100    -0.06700
C55         C  0.91703816  0.00843812  0.03156417    -0.32000
N56         N  0.94050962  0.99975282  0.49904814     0.14500
C57         C  0.92193491  0.99793539  0.46716466    -0.32000
H58         H  0.93095523  0.99932003  0.43807457     0.16400
C59         C  0.82303169  0.04716444  0.02982069    -0.31000
N60         N  0.82255952  0.06724325  0.49680436     0.13200
C61         C  0.82970932  0.05018979  0.46551403    -0.31000
C62         C  0.83134678  0.43931980  0.02922578    -0.31300
N63         N  0.82088035  0.42602603  0.50205175     0.13700
H64         H  0.82705945  0.43164473  0.05831210     0.16300
C65         C  0.82825004  0.44187568  0.46984975    -0.31300
H66         H  0.82422736  0.43443746  0.44057107     0.16300
H67         H  0.82712381  0.05739887  0.43595519     0.16300
H68         H  0.92581002  0.00880563  0.06089643     0.16400
H69         H  0.82329658  0.05588538  0.05886699     0.16300
C70         C  0.85257325  0.49422787  0.21060104     0.30200
C71         C  0.85204349  0.49475573  0.28995052     0.30200
C72         C  0.88498461  0.50038539  0.23039987    -0.06000
C73         C  0.83119544  0.01821479  0.22897677    -0.06800
C74         C  0.84169354  0.46532092  0.23038706    -0.06600
C75         C  0.88483946  0.50067165  0.27073306    -0.06000
C76         C  0.83187560  0.01830065  0.26932904    -0.06800
C77         C  0.84127644  0.46559285  0.27039637    -0.06700
C78         C  0.91698948  0.00483770  0.27934034    -0.32000
N79         N  0.93519264  0.00693560  0.24723541     0.14500
C80         C  0.91618439  0.00393014  0.21580027    -0.32000
H81         H  0.92471870  0.00445828  0.18643819     0.16400
C82         C  0.82056166  0.04602273  0.28101880    -0.31000
N83         N  0.81173991  0.06232097  0.24972121     0.13200
C84         C  0.81936809  0.04602886  0.21790677    -0.31000
C85         C  0.82889882  0.43850451  0.28211281    -0.31300
N86         N  0.82198450  0.42181542  0.25034596     0.13700
H87         H  0.82486085  0.43163062  0.31157967     0.16300
C88         C  0.82982821  0.43803629  0.21861301    -0.31300
H89         H  0.82599023  0.43101544  0.18913949     0.16300
H90         H  0.81788361  0.05436146  0.18876458     0.16300
H91         H  0.92625495  0.00600400  0.30841663     0.16400
H92         H  0.82100667  0.05467115  0.31010041     0.16300
O93         O  0.53714848  0.27425806  0.44259884    -0.71600
O94         O  0.53574718  0.26805183  0.05725405    -0.71800
O95         O  0.58193933  0.27727886  0.49743002    -0.71700
O96         O  0.49025282  0.27535188  0.00425259    -0.71700
O97         O  0.48891674  0.23247307  0.50249099    -0.71600
O98         O  0.58010870  0.22484348  0.99621568    -0.71600
O99         O  0.53367720  0.21966364  0.04906982    -0.71600
O100        O  0.53444967  0.22571351  0.44908092    -0.71800
V101        V  0.53641050  0.27819809  0.49649205     1.35200
V102        V  0.53473712  0.22692089  0.99538824     1.35200
C103        C  0.53589278  0.24841819  0.42759950     0.77700
C104        C  0.53426597  0.24194943  0.07142088     0.77700
C105        C  0.59616317  0.25229284  0.50059918     0.77600
C106        C  0.47459075  0.25733671  0.49865508     0.77500
O107        O  0.48719709  0.23916947  0.25189979    -0.71600
O108        O  0.57785434  0.23867586  0.24964414    -0.71800
O109        O  0.53364626  0.24116074  0.30495949    -0.71700
O110        O  0.53150285  0.23757019  0.19605202    -0.71700
O111        O  0.53011048  0.28645246  0.19445366    -0.71600
O112        O  0.53500111  0.28998987  0.30193917    -0.71600
O113        O  0.57826728  0.28748073  0.24552383    -0.71600
O114        O  0.48689873  0.28807990  0.25095371    -0.71800
V115        V  0.53253117  0.24006520  0.25057234     1.35200
V116        V  0.53256643  0.28703668  0.24822345     1.35200
C117        C  0.47169431  0.26354579  0.25216689     0.77700
C118        C  0.59343254  0.26282694  0.24730477     0.77700
C119        C  0.53498096  0.26636151  0.32170494     0.77600
C120        C  0.53031195  0.26173873  0.17695761     0.77500
O121        O  0.98557652  0.03617828  0.00357448    -0.71600
O122        O  0.07967089  0.02858092  0.50191587    -0.71800
O123        O  0.03292457  0.03330766  0.44920357    -0.71700
O124        O  0.03205860  0.02999619  0.05609772    -0.71700
O125        O  0.03556396  0.47662793  0.05017014    -0.71600
O126        O  0.02938357  0.49378682  0.44296649    -0.71600
O127        O  0.07868952  0.48222488  0.99357036    -0.71600
O128        O  0.98365114  0.48797988  0.49546892    -0.71800
V129        V  0.03128708  0.03437831  0.00228959     1.35200
V130        V  0.03327386  0.48345626  0.99655444     1.35200
C131        C  0.96983331  0.01213260  0.99962339     0.77700
C132        C  0.09181236  0.00956193  0.99852534     0.77700
C133        C  0.03320414  0.01118997  0.42662828     0.77600
C134        C  0.03124751  0.00395457  0.07040821     0.77500
O135        O  0.07558696  0.03251595  0.25518139    -0.71600
O136        O  0.98434399  0.03182955  0.25262017    -0.71800
O137        O  0.02918206  0.02492404  0.30683835    -0.71700
O138        O  0.03082485  0.03942272  0.20022345    -0.71700
O139        O  0.03117060  0.48905353  0.19393827    -0.71600
O140        O  0.02852404  0.48028706  0.30157200    -0.71600
O141        O  0.98431932  0.48486067  0.24626641    -0.71600
O142        O  0.07519443  0.48436442  0.24935054    -0.71800
V143        V  0.02998274  0.03125105  0.25349390     1.35200
V144        V  0.02977120  0.48559963  0.24786643     1.35200
C145        C  0.09131095  0.00846583  0.25054832     0.77700
C146        C  0.96939275  0.00758194  0.24693014     0.77700
C147        C  0.02941826  0.99844552  0.31981214     0.77600
C148        C  0.03155463  0.01761278  0.17714484     0.77500
C149        C  0.35648458  0.25607149  0.46219802     0.30200
C150        C  0.35752474  0.25074829  0.04137190     0.30200
C151        C  0.38981576  0.25640984  0.48097149    -0.06000
C152        C  0.33981452  0.28290898  0.48222910    -0.06800
C153        C  0.34014864  0.22932801  0.48238517    -0.06600
C154        C  0.39048547  0.25092120  0.02136354    -0.06000
C155        C  0.34105778  0.27764527  0.02148664    -0.06800
C156        C  0.34097550  0.22377107  0.02244888    -0.06700
C157        C  0.42228296  0.25294842  0.03201536    -0.32000
N158        N  0.44049090  0.25858692  0.49933179     0.14500
C159        C  0.42098380  0.25753599  0.46813196    -0.32000
H160        H  0.42893439  0.25736273  0.43849811     0.16400
C161        C  0.32805885  0.30469899  0.03291190    -0.31000
N162        N  0.31608665  0.32460515  0.50339351     0.13200
C163        C  0.32354418  0.30856269  0.47134363    -0.31000
C164        C  0.32644645  0.19798636  0.03535705    -0.31300
N165        N  0.31455096  0.18870581  0.50375417     0.13700
H166        H  0.32392910  0.19114184  0.06508725     0.16300
C167        C  0.32287759  0.20435731  0.47168700    -0.31300
H168        H  0.31689815  0.19794061  0.44259046     0.16300
H169        H  0.31709695  0.31503521  0.44233656     0.16300
H170        H  0.43187421  0.25505509  0.06083384     0.16400
H171        H  0.32626223  0.31290910  0.06210798     0.16300
C172        C  0.35502834  0.25271386  0.21197337     0.30200
C173        C  0.35476416  0.25289382  0.29142861     0.30200
C174        C  0.38782097  0.25614287  0.23186575    -0.06000
C175        C  0.33593398  0.27835364  0.23135383    -0.06800
C176        C  0.34114117  0.22472400  0.23149589    -0.06600
C177        C  0.38766622  0.25591178  0.27205131    -0.06000
C178        C  0.33535143  0.27807638  0.27162040    -0.06800
C179        C  0.34052646  0.22481233  0.27163666    -0.06700
C180        C  0.41887608  0.25982405  0.28416317    -0.32000
N181        N  0.43754302  0.26305860  0.25254369     0.14500
C182        C  0.41902338  0.26103599  0.22060907    -0.32000
H183        H  0.42792688  0.26284313  0.19149394     0.16400
C184        C  0.31853416  0.30313127  0.28319111    -0.31000
N185        N  0.31025904  0.31929880  0.25156768     0.13200
C186        C  0.32095453  0.30452084  0.21986366    -0.31000
C187        C  0.32332356  0.19979360  0.28247382    -0.31300
N188        N  0.31495622  0.18388303  0.25049665     0.13700
H189        H  0.31617878  0.19424278  0.31145790     0.16300
C190        C  0.32554890  0.19926397  0.21918396    -0.31300
H191        H  0.32211637  0.19270161  0.18949152     0.16300
H192        H  0.31948372  0.31314147  0.19082256     0.16300
H193        H  0.42744147  0.26005318  0.31360810     0.16400
H194        H  0.31301505  0.30948595  0.31246729     0.16300
C195        C  0.21111991  0.50063603  0.04194726     0.30200
C196        C  0.20715347  0.50396550  0.46234538     0.30200
C197        C  0.17831592  0.50152282  0.02133101    -0.06000
C198        C  0.22667219  0.02771156  0.02251468    -0.06800
C199        C  0.22819038  0.47413027  0.02231883    -0.06600
C200        C  0.17415759  0.50664570  0.48151012    -0.06000
C201        C  0.22937431  0.03248873  0.48164853    -0.06800
C202        C  0.22177853  0.47622443  0.48243824    -0.06700
C203        C  0.14295042  0.50945267  0.46900977    -0.32000
N204        N  0.12392560  0.51233233  0.50035486     0.14500
C205        C  0.14655862  0.50488340  0.03160556    -0.32000
H206        H  0.13693018  0.50727941  0.06031458     0.16400
C207        C  0.24535031  0.05815595  0.47076510    -0.31000
N208        N  0.25273281  0.07432592  0.50277088     0.13200
C209        C  0.24239662  0.05305739  0.03520025    -0.31000
C210        C  0.23939444  0.45137223  0.47173352    -0.31300
N211        N  0.24850554  0.43613968  0.50389989     0.13700
H212        H  0.24572994  0.44509826  0.44268783     0.16300
C213        C  0.24454828  0.44882138  0.03423970    -0.31300
H214        H  0.24790427  0.44148255  0.06367669     0.16300
H215        H  0.24531597  0.06009110  0.06477154     0.16300
H216        H  0.13462683  0.50921908  0.43946887     0.16400
H217        H  0.25176699  0.06444359  0.44174880     0.16300
C218        C  0.20798189  0.50203355  0.21225038     0.30200
C219        C  0.20808203  0.50298339  0.29165824     0.30200
C220        C  0.22378038  0.47520090  0.23231601    -0.06000
C221        C  0.22714031  0.02753083  0.23041366    -0.06800
C222        C  0.17484051  0.50359051  0.23181050    -0.06600
C223        C  0.22419900  0.47554317  0.27241822    -0.06000
C224        C  0.22759199  0.02787505  0.27059326    -0.06800
C225        C  0.17506335  0.50384688  0.27206985    -0.06700
C226        C  0.24062781  0.45006784  0.28380457    -0.32000
N227        N  0.24915376  0.43412274  0.25198265     0.14500
C228        C  0.23914121  0.44954583  0.22040591    -0.32000
H229        H  0.24303058  0.44287133  0.19083935     0.16400
C230        C  0.24425036  0.05318319  0.28149554    -0.31000
N231        N  0.25271913  0.06900457  0.24959906     0.13200
C232        C  0.24220065  0.05343719  0.21829053    -0.31000
C233        C  0.14375642  0.50642860  0.28416399    -0.31300
N234        N  0.12551799  0.00854458  0.25106958     0.13700
H235        H  0.13536223  0.50706987  0.31360898     0.16300
C236        C  0.14325322  0.50672212  0.22055622    -0.31300
H237        H  0.13406508  0.50835601  0.19148239     0.16300
H238        H  0.24462832  0.06065963  0.18878770     0.16300
H239        H  0.24587069  0.44343978  0.31306695     0.16400
H240        H  0.24907664  0.05998736  0.31071299     0.16300
C241        C  0.20215908  0.47680415  0.39735024    -0.13100
C242        C  0.20578176  0.50378446  0.41808496     0.09000
C243        C  0.20805751  0.03149042  0.39585473    -0.13100
C244        C  0.20588367  0.03076484  0.35553317    -0.13100
C245        C  0.20637809  0.50334892  0.33590144     0.09000
C246        C  0.20239705  0.47660050  0.35699117    -0.13100
H247        H  0.19838414  0.45577543  0.41215099     0.13000
H248        H  0.20591776  0.05299148  0.41004493     0.13000
H249        H  0.20235023  0.05171602  0.34040008     0.13000
H250        H  0.19876183  0.45542892  0.34243132     0.13000
C251        C  0.18603107  0.48512676  0.10648554    -0.13100
C252        C  0.21113640  0.49899999  0.08613544     0.09000
C253        C  0.23736119  0.00758806  0.10618443    -0.13100
C254        C  0.23722665  0.00785976  0.14654537    -0.13100
C255        C  0.20933997  0.50012513  0.16813266     0.09000
C256        C  0.18507954  0.48578617  0.14679907    -0.13100
H257        H  0.16737608  0.47306847  0.09148210     0.13000
H258        H  0.25905248  0.01418184  0.09150567     0.13000
H259        H  0.25880757  0.01471371  0.16142454     0.13000
H260        H  0.16569089  0.47429595  0.16109748     0.13000
C261        C  0.28304290  0.14464965  0.21686888    -0.13100
C262        C  0.29856587  0.15526040  0.25020835     0.09000
C263        C  0.29872418  0.13688649  0.28310366    -0.13100
C264        C  0.28405560  0.10875031  0.28272497    -0.13100
C265        C  0.26848544  0.09800937  0.24947281     0.09000
C266        C  0.26820934  0.11645660  0.21650858    -0.13100
H267        H  0.28196261  0.15818603  0.19107444     0.13000
H268        H  0.31095393  0.14377921  0.30911271     0.13000
H269        H  0.28560057  0.09533705  0.30854549     0.13000
H270        H  0.25616457  0.10951266  0.19042346     0.13000
C271        C  0.27526944  0.35713443  0.22081027    -0.13100
C272        C  0.29479063  0.34823367  0.25175664     0.09000
C273        C  0.29933472  0.36814229  0.28267466    -0.13100
C274        C  0.28463619  0.39637087  0.28263540    -0.13100
C275        C  0.26496646  0.40527749  0.25173688     0.09000
C276        C  0.26046092  0.38530230  0.22082763    -0.13100
H277        H  0.27102221  0.34209328  0.19686264     0.13000
H278        H  0.31475455  0.36213800  0.30658287     0.13000
H279        H  0.28907509  0.41134002  0.30657960     0.13000
H280        H  0.24498403  0.39115386  0.19693120     0.13000
C281        C  0.30088974  0.14070105  0.53587167    -0.13100
C282        C  0.29810696  0.16020672  0.50415316     0.09000
C283        C  0.27983235  0.15091916  0.47222805    -0.13100
C284        C  0.26516172  0.12280759  0.47176454    -0.13100
C285        C  0.26811935  0.10327311  0.50331602     0.09000
C286        C  0.28602092  0.11260505  0.53547563    -0.13100
H287        H  0.27543815  0.16091948  0.05782867     0.13000
H288        H  0.27644910  0.16542197  0.44758660     0.13000
H289        H  0.25099427  0.11661828  0.44689026     0.13000
H290        H  0.28911768  0.09794770  0.56006371     0.13000
C291        C  0.30347376  0.37357517  0.47375308    -0.13100
C292        C  0.29976675  0.35312344  0.50414001     0.09000
C293        C  0.27980453  0.36085364  0.53514676    -0.13100
C294        C  0.26335729  0.38824762  0.53534795    -0.13100
C295        C  0.26664599  0.40853711  0.50461187     0.09000
C296        C  0.28719040  0.40101135  0.47403554    -0.13100
H297        H  0.31923564  0.36846456  0.44991956     0.13000
H298        H  0.27626414  0.34537916  0.55877945     0.13000
H299        H  0.24742427  0.39316271  0.55907362     0.13000
H300        H  0.29089122  0.41636929  0.45034720     0.13000
C301        C  0.36022240  0.22808392  0.39777818    -0.13100
C302        C  0.35738847  0.25545700  0.41790479     0.09000
C303        C  0.36005519  0.28199074  0.39609590    -0.13100
C304        C  0.35983548  0.28109654  0.35568920    -0.13100
C305        C  0.35644899  0.25369567  0.33569064     0.09000
C306        C  0.35936168  0.22717693  0.35746746    -0.13100
H307        H  0.36388146  0.20720767  0.41303767     0.13000
H308        H  0.36310683  0.30347769  0.41007781     0.13000
H309        H  0.36272387  0.30195594  0.34016684     0.13000
H310        H  0.36217427  0.20563799  0.34354203     0.13000
C311        C  0.32928592  0.26061445  0.10559730    -0.13100
C312        C  0.35652198  0.25017382  0.08561769     0.09000
C313        C  0.38044099  0.23559414  0.10745858    -0.13100
C314        C  0.37964242  0.23600341  0.14782664    -0.13100
C315        C  0.35500712  0.25113869  0.16776139     0.09000
C316        C  0.32858089  0.26120104  0.14593056    -0.13100
H317        H  0.30817981  0.26806843  0.09010078     0.13000
H318        H  0.39944559  0.22315867  0.09354813     0.13000
H319        H  0.39824375  0.22409221  0.16338780     0.13000
H320        H  0.30692961  0.26894766  0.15984551     0.13000
C321        C  0.03139861  0.01613650  0.38547927    -0.16200
C322        C  0.02987237  0.99307264  0.36097157    -0.31400
H323        H  0.02767398  0.54646793  0.37577908     0.12800
H324        H  0.02975013  0.96997777  0.37119094     0.13400
C325        C  0.03200590  0.02280572  0.13591924    -0.16200
C326        C  0.03135739  0.99953251  0.11167536    -0.31400
H327        H  0.03253263  0.04580983  0.12542803     0.12800
H328        H  0.03653539  0.47202591  0.12528338     0.13400
C329        C  0.53576722  0.24477206  0.38600605    -0.16200
C330        C  0.53633180  0.26887646  0.36327062    -0.31400
H331        H  0.53462230  0.22224079  0.37400741     0.12800
H332        H  0.53736657  0.29137056  0.37543951     0.13400
C333        C  0.53309531  0.23803412  0.11315341    -0.16200
C334        C  0.52959453  0.26237040  0.13524847    -0.31400
H335        H  0.53533422  0.21572778  0.12560986     0.12800
H336        H  0.52709181  0.28447762  0.12222146     0.13400
C337        C  0.82818894  0.00320339  0.39485808    -0.13100
C338        C  0.85076529  0.49533402  0.41638258     0.09000
C339        C  0.87502612  0.47991482  0.39612656    -0.13100
C340        C  0.87517881  0.47922429  0.35566322    -0.13100
C341        C  0.85088872  0.49365232  0.33422138     0.09000
C342        C  0.82714944  0.00309199  0.35453518    -0.13100
H343        H  0.80733862  0.01113545  0.41034563     0.13000
H344        H  0.89408118  0.46852231  0.41154012     0.13000
H345        H  0.89444716  0.46748605  0.34116318     0.13000
H346        H  0.80535045  0.01063604  0.34060655     0.13000
C347        C  0.87778433  0.47769362  0.10567450    -0.13100
C348        C  0.85369431  0.49246307  0.08426365     0.09000
C349        C  0.82538619  0.00372871  0.10332209    -0.13100
C350        C  0.82490650  0.00323562  0.14363697    -0.13100
C351        C  0.85232925  0.49234391  0.16639314     0.09000
C352        C  0.87708298  0.47759913  0.14614437    -0.13100
H353        H  0.89725832  0.46625619  0.09121971     0.13000
H354        H  0.80428959  0.01195737  0.08851719     0.13000
H355        H  0.80345956  0.01101434  0.15798283     0.13000
H356        H  0.89606612  0.46609198  0.16156386     0.13000
C357        C  0.78346909  0.13912440  0.21882851    -0.13100
C358        C  0.76535183  0.14842223  0.25086402     0.09000
C359        C  0.76382604  0.12922338  0.28296910    -0.13100
C360        C  0.77950148  0.10138736  0.28279632    -0.13100
C361        C  0.79714448  0.09186891  0.25049984     0.09000
C362        C  0.79909884  0.11124619  0.21863361    -0.13100
H363        H  0.78580126  0.15334871  0.19379497     0.13000
H364        H  0.74967518  0.13523111  0.30788131     0.13000
H365        H  0.77690227  0.08691893  0.30760603     0.13000
H366        H  0.81283412  0.10504043  0.19348918     0.13000
C367        C  0.77045881  0.35678022  0.27878010    -0.13100
C368        C  0.77774578  0.33561970  0.25002745     0.09000
C369        C  0.79968777  0.34337723  0.22110598    -0.13100
C370        C  0.81428711  0.37164051  0.22121375    -0.13100
C371        C  0.80717436  0.39265296  0.25022008     0.09000
C372        C  0.78502880  0.38494326  0.27889984    -0.13100
H373        H  0.75293211  0.35179857  0.30079059     0.13000
H374        H  0.80572976  0.32747888  0.19867051     0.13000
H375        H  0.83142824  0.37696057  0.19889606     0.13000
H376        H  0.77850961  0.40092553  0.30103623     0.13000
C377        C  0.79700028  0.14321007  0.02753196    -0.13100
C378        C  0.77633225  0.15298558  0.49633437     0.09000
C379        C  0.77356384  0.13344071  0.52789393    -0.13100
C380        C  0.78902150  0.10571353  0.52802767    -0.13100
C381        C  0.80773744  0.09656442  0.49659798     0.09000
C382        C  0.81127739  0.11463903  0.02728863    -0.13100
H383        H  0.80239840  0.15851997  0.05085563     0.13000
H384        H  0.75860127  0.13911892  0.55222983     0.13000
H385        H  0.78545511  0.09104488  0.55246110     0.13000
H386        H  0.82738830  0.10849503  0.05046813     0.13000
C387        C  0.79844165  0.34765731  0.47373121    -0.13100
C388        C  0.77649144  0.34015007  0.50271312     0.09000
C389        C  0.77013494  0.36099341  0.53212265    -0.13100
C390        C  0.78499232  0.38901340  0.53216491    -0.13100
C391        C  0.80653198  0.39673698  0.50282632     0.09000
C392        C  0.81334666  0.37570317  0.47379425    -0.13100
H393        H  0.80404091  0.33182930  0.45102804     0.13000
H394        H  0.80277895  0.33058471  0.04797088     0.13000
H395        H  0.77892308  0.40496075  0.55455369     0.13000
H396        H  0.83024523  0.38095717  0.45121571     0.13000
C397        C  0.70424909  0.22114866  0.39497324    -0.13100
C398        C  0.71013483  0.24802056  0.41513712     0.09000
C399        C  0.70868851  0.27493560  0.39382606    -0.13100
C400        C  0.70700716  0.27445869  0.35341452    -0.13100
C401        C  0.70705148  0.24707735  0.33301202     0.09000
C402        C  0.70279463  0.22066382  0.35468858    -0.13100
H403        H  0.70053686  0.20032537  0.41034565     0.13000
H404        H  0.70810607  0.29644386  0.40819849     0.08600
H405        H  0.70563232  0.29561271  0.33818849     0.13000
H406        H  0.69771766  0.19951100  0.34074460     0.13000
C407        C  0.70943464  0.27367040  0.10369482    -0.13100
C408        C  0.71181078  0.24668738  0.08258092     0.09000
C409        C  0.70710842  0.21975969  0.10299598    -0.13100
C410        C  0.70538837  0.21952052  0.14327715    -0.13100
C411        C  0.70853566  0.24619914  0.16479254     0.09000
C412        C  0.70784371  0.27341485  0.14410977    -0.13100
H413        H  0.70806360  0.29506513  0.08912900     0.13000
H414        H  0.70405986  0.19874103  0.08782062     0.13000
H415        H  0.70055324  0.19837232  0.15724576     0.13000
H416        H  0.70589890  0.29462624  0.15914889     0.13000
C417        C  0.71251895  0.24537688  0.95889052     0.30200
C418        C  0.71364744  0.24601946  0.53872475     0.30200
C419        C  0.67995777  0.24569597  0.97898964    -0.06000
C420        C  0.72998821  0.21907739  0.97882118    -0.06800
C421        C  0.72961162  0.27238206  0.97758034    -0.06600
C422        C  0.68059925  0.24725604  0.51956870    -0.06000
C423        C  0.73002649  0.21958508  0.51790473    -0.06800
C424        C  0.73091587  0.27279595  0.51994435    -0.06700
C425        C  0.64929327  0.24865455  0.53183158    -0.32000
N426        N  0.63023262  0.25070712  0.50028764     0.14500
C427        C  0.64838981  0.24647937  0.96760892    -0.32000
H428        H  0.63938113  0.24640026  0.93834934     0.16400
C429        C  0.74929230  0.19587751  0.52844981    -0.31000
N430        N  0.75928839  0.18025725  0.99880829     0.13200
C431        C  0.74859366  0.19520428  0.96725625    -0.31000
C432        C  0.74904759  0.29659915  0.53253458    -0.31300
N433        N  0.75872782  0.31156967  0.99603615     0.13700
H434        H  0.75480551  0.30205574  0.56209267     0.16300
C435        C  0.74760976  0.29628491  0.96496207    -0.31300
H436        H  0.75316913  0.30170545  0.93538502     0.16300
H437        H  0.75475131  0.18936136  0.93799665     0.16300
H438        H  0.64096419  0.24853217  0.56131753     0.16400
H439        H  0.75675725  0.19027591  0.55738114     0.16300
C440        C  0.71450291  0.24371538  0.70926222     0.30200
C441        C  0.71348750  0.24393954  0.78858427     0.30200
C442        C  0.68159622  0.23987084  0.72822751    -0.06000
C443        C  0.73465293  0.21892266  0.72934583    -0.06800
C444        C  0.72774959  0.27225297  0.72907913    -0.06600
C445        C  0.68117121  0.23993417  0.76829779    -0.06000
C446        C  0.73414066  0.21923354  0.76962080    -0.06800
C447        C  0.72717293  0.27231055  0.76924358    -0.06700
C448        C  0.64974125  0.23718714  0.77956779    -0.32000
N449        N  0.63127264  0.23531289  0.74751257     0.14500
C450        C  0.65028077  0.23714559  0.71596431    -0.32000
H451        H  0.64181106  0.23755561  0.68648377     0.16400
C452        C  0.75375651  0.19628013  0.78202973    -0.31000
N453        N  0.76550477  0.18136528  0.75092374     0.13200
C454        C  0.75442467  0.19537584  0.71864183    -0.31000
C455        C  0.74491833  0.29671117  0.78120511    -0.31300
N456        N  0.75534969  0.31209062  0.74989458     0.13700
H457        H  0.75141100  0.30196842  0.81057288     0.16300
C458        C  0.74575506  0.29680277  0.71799724    -0.31300
H459        H  0.75219064  0.30262984  0.68884186     0.16300
H460        H  0.75979967  0.18848919  0.68952995     0.16300
H461        H  0.64078672  0.23765392  0.80879196     0.16400
H462        H  0.75924391  0.19088246  0.81165515     0.16300
C463        C  0.85443840  0.99511875  0.95923490     0.30200
C464        C  0.85739006  0.99649068  0.53854879     0.30200
C465        C  0.88860617  0.50147068  0.98104760    -0.06000
C466        C  0.83173570  0.01824134  0.97820504    -0.06800
C467        C  0.84394223  0.46790765  0.97897251    -0.06600
C468        C  0.88410506  0.50447481  0.52021477    -0.06000
C469        C  0.84135441  0.02340337  0.51813756    -0.06800
C470        C  0.84023136  0.46996409  0.52079546    -0.06700
C471        C  0.92183166  0.99933385  0.53077623    -0.32000
N472        N  0.93561514  0.01220358  0.99988842     0.14500
C473        C  0.91728983  0.00868500  0.96799447    -0.32000
H474        H  0.92626252  0.00950256  0.93882613     0.16400
C475        C  0.83043497  0.05133993  0.52887882    -0.31000
N476        N  0.81675678  0.06390434  0.99816360     0.13200
C477        C  0.82337560  0.04694860  0.96683781    -0.31000
C478        C  0.82809364  0.44306742  0.53334070    -0.31300
N479        N  0.82405572  0.42381946  0.99661830     0.13700
H480        H  0.82461580  0.43649002  0.56299967     0.16300
C481        C  0.83170090  0.44117416  0.96576818    -0.31300
H482        H  0.82847536  0.43493806  0.93591482     0.16300
H483        H  0.82468513  0.05573425  0.93785623     0.16300
H484        H  0.93059992  0.00155699  0.55996593     0.16400
H485        H  0.82956319  0.06002896  0.55791653     0.16300
C486        C  0.85309898  0.49676581  0.71035091     0.30200
C487        C  0.85415739  0.49752553  0.78962405     0.30200
C488        C  0.88608431  0.50228029  0.72917049    -0.06000
C489        C  0.83635434  0.01941838  0.72928558    -0.06800
C490        C  0.84176754  0.46814213  0.73053063    -0.06600
C491        C  0.88658050  0.50283202  0.76947508    -0.06000
C492        C  0.83706489  0.01900653  0.76970219    -0.06800
C493        C  0.84229166  0.46845283  0.77050988    -0.06700
C494        C  0.92064929  0.00163512  0.77933978    -0.32000
N495        N  0.93863107  0.00414566  0.74708807     0.14500
C496        C  0.91950401  0.00173834  0.71573720    -0.32000
H497        H  0.92777750  0.00299759  0.68629222     0.16400
C498        C  0.83057072  0.04787253  0.78179449    -0.31000
N499        N  0.82450425  0.06551488  0.75084959     0.13200
C500        C  0.82945335  0.04875182  0.71876721    -0.31000
C501        C  0.82962509  0.44151365  0.78265557    -0.31300
N502        N  0.82137027  0.42489448  0.75118950     0.13700
H503        H  0.82638110  0.43478616  0.81231288     0.16300
C504        C  0.82879411  0.44115023  0.71923654    -0.31300
H505        H  0.82398923  0.43445896  0.68985027     0.16300
H506        H  0.82943090  0.05756086  0.68980479     0.16300
H507        H  0.93005085  0.00286792  0.80833480     0.16400
H508        H  0.83233263  0.05597709  0.81108476     0.16300
O509        O  0.53565742  0.28072721  0.95007945    -0.71600
O510        O  0.53573735  0.28390254  0.55046427    -0.71800
O511        O  0.58121676  0.27339443  0.00380205    -0.71700
O512        O  0.49093727  0.28100375  0.49509595    -0.71700
O513        O  0.48930403  0.22711524  0.99388442    -0.71600
O514        O  0.57973940  0.22864200  0.50351758    -0.71600
O515        O  0.53418448  0.23529605  0.55652234    -0.71600
O516        O  0.53580889  0.23228971  0.94186690    -0.71800
V517        V  0.53570981  0.27345050  0.00371740     1.35200
V518        V  0.53436398  0.23150229  0.50280209     1.35200
C519        C  0.53607997  0.25843881  0.92774296     0.77700
C520        C  0.53478085  0.26101958  0.57179387     0.77700
C521        C  0.59597622  0.24874910  0.00001218     0.77600
C522        C  0.47445675  0.25154471  0.99906424     0.77500
O523        O  0.48928322  0.21901683  0.75149880    -0.71600
O524        O  0.58033629  0.21330246  0.74766183    -0.71800
O525        O  0.53639672  0.21569810  0.80329894    -0.71700
O526        O  0.53318004  0.21603318  0.69550737    -0.71700
O527        O  0.53648466  0.26483079  0.69523312    -0.71600
O528        O  0.53934056  0.26452310  0.80405036    -0.71600
O529        O  0.58326256  0.26213125  0.74797837    -0.71600
O530        O  0.49262104  0.26782009  0.75140238    -0.71800
V531        V  0.53484199  0.21698111  0.74946426     1.35200
V532        V  0.53788868  0.26390051  0.74963165     1.35200
C533        C  0.47563445  0.24443329  0.75231933     0.77700
C534        C  0.59714195  0.23689391  0.74739991     0.77700
C535        C  0.53819902  0.23983702  0.82194764     0.77600
C536        C  0.53442862  0.24031041  0.67706620     0.77500
O537        O  0.98886530  0.02557149  0.50384518    -0.71600
O538        O  0.07701815  0.03429777  0.00175975    -0.71800
O539        O  0.03053255  0.04060019  0.94848216    -0.71700
O540        O  0.03555160  0.02080156  0.55604912    -0.71700
O541        O  0.02877359  0.48244241  0.54998532    -0.71600
O542        O  0.03089812  0.48846776  0.94288809    -0.71600
O543        O  0.07451933  0.48824342  0.49676359    -0.71600
O544        O  0.98783121  0.48279089  0.99892039    -0.71800
V545        V  0.03430801  0.02612040  0.50255871     1.35200
V546        V  0.02906831  0.48907132  0.49647601     1.35200
C547        C  0.97452914  0.00092117  0.49911813     0.77700
C548        C  0.09588895  0.00484907  0.49743725     0.77700
C549        C  0.03028543  0.01797175  0.92666352     0.77600
C550        C  0.03673261  0.99461659  0.56989376     0.77500
O551        O  0.07874623  0.03006670  0.75365439    -0.71600
O552        O  0.98762441  0.02950408  0.74900895    -0.71800
O553        O  0.03132510  0.02608903  0.80498709    -0.71700
O554        O  0.03511276  0.03365846  0.69732940    -0.71700
O555        O  0.03120932  0.49231496  0.69251160    -0.71600
O556        O  0.02968587  0.47916371  0.79939932    -0.71600
O557        O  0.98509332  0.48664334  0.74481023    -0.71600
O558        O  0.07583691  0.48471866  0.74684472    -0.71800
V559        V  0.03321021  0.02889773  0.75110144     1.35200
V560        V  0.03047802  0.48667510  0.74604538     1.35200
C561        C  0.09436798  0.00578035  0.75091671     0.77700
C562        C  0.97273960  0.00490349  0.74644973     0.77700
C563        C  0.03149399  0.00050285  0.82057250     0.77600
C564        C  0.03577352  0.01061069  0.67632505     0.77500
C565        C  0.35676854  0.24989015  0.96188402     0.30200
C566        C  0.35790357  0.25596235  0.54158067     0.30200
C567        C  0.38987084  0.25005385  0.98111951    -0.06000
C568        C  0.34002736  0.27698260  0.98130064    -0.06800
C569        C  0.34028830  0.22323497  0.98223394    -0.06600
C570        C  0.39069200  0.25655409  0.52120581    -0.06000
C571        C  0.34103538  0.28303076  0.52250685    -0.06800
C572        C  0.34127067  0.22926379  0.52241318    -0.06700
C573        C  0.42252288  0.25827347  0.53173665    -0.32000
N574        N  0.44038101  0.25206419  0.99972283     0.14500
C575        C  0.42106288  0.25027194  0.96847827    -0.32000
H576        H  0.42916423  0.24943881  0.93890594     0.16400
C577        C  0.32692898  0.30937275  0.53466493    -0.31000
N578        N  0.31792379  0.31989837  0.00124864     0.13200
C579        C  0.32477767  0.30303990  0.96967609    -0.31000
C580        C  0.32554074  0.20402223  0.53496054    -0.31300
N581        N  0.31671995  0.18182296  0.00431987     0.13700
H582        H  0.32207595  0.19763271  0.56469791     0.16300
C583        C  0.32444723  0.19728115  0.97192997    -0.31300
H584        H  0.31835465  0.19013115  0.94311122     0.16300
H585        H  0.31961493  0.30968409  0.94036941     0.16300
H586        H  0.43220010  0.25936385  0.56062315     0.16400
H587        H  0.32545514  0.31745322  0.56395448     0.16300
C588        C  0.35853197  0.25287090  0.71175399     0.30200
C589        C  0.35809431  0.25263372  0.79113705     0.30200
C590        C  0.39141316  0.24967274  0.73171073    -0.06000
C591        C  0.34539669  0.28152224  0.73130348    -0.06800
C592        C  0.33878129  0.22803108  0.73091735    -0.06600
C593        C  0.39105785  0.24906616  0.77192699    -0.06000
C594        C  0.34466885  0.28130066  0.77154552    -0.06800
C595        C  0.33811664  0.22809181  0.77099720    -0.06700
C596        C  0.42246597  0.24687232  0.78421977    -0.32000
N597        N  0.44154827  0.24668647  0.75268088     0.14500
C598        C  0.42316704  0.24914644  0.72074041    -0.32000
H599        H  0.43269159  0.25121745  0.69195646     0.16400
C600        C  0.32970487  0.30763639  0.78274408    -0.31000
N601        N  0.32251412  0.32413544  0.75089871     0.13200
C602        C  0.33230150  0.30847224  0.71946026    -0.31000
C603        C  0.31938096  0.20418039  0.78191172    -0.31300
N604        N  0.31010317  0.18874201  0.74998997     0.13700
H605        H  0.31310133  0.19825266  0.81107476     0.16300
C606        C  0.32157748  0.20346335  0.71860347    -0.31300
H607        H  0.31897853  0.19617770  0.68905504     0.16300
H608        H  0.33001452  0.31621536  0.69009324     0.16300
H609        H  0.43086279  0.24602839  0.81371058     0.16400
H610        H  0.32318677  0.31386609  0.81177359     0.16300
C611        C  0.20671662  0.50425894  0.54175705     0.30200
C612        C  0.21244093  0.50157204  0.96250937     0.30200
C613        C  0.17379033  0.50716608  0.52174367    -0.06000
C614        C  0.22844734  0.03255426  0.52195363    -0.06800
C615        C  0.22118747  0.47640266  0.52254419    -0.06600
C616        C  0.17915481  0.50148363  0.98113924    -0.06000
C617        C  0.22745341  0.02823704  0.98228588    -0.06800
C618        C  0.22906141  0.47461787  0.98214807    -0.06700
C619        C  0.14798539  0.50334112  0.96810293    -0.32000
N620        N  0.12853752  0.50537792  0.99916160     0.14500
C621        C  0.14226852  0.51128611  0.53257409    -0.32000
H622        H  0.13304159  0.51316555  0.56154524     0.16400
C623        C  0.24511243  0.05308756  0.97190057    -0.31000
N624        N  0.25376952  0.06825179  0.00424246     0.13200
C625        C  0.24234339  0.05893227  0.53408510    -0.31000
C626        C  0.24648529  0.44982294  0.97080780    -0.31300
N627        N  0.25529256  0.43400546  0.00255155     0.13700
H628        H  0.25291798  0.44378449  0.94168464     0.16300
C629        C  0.23761690  0.45144126  0.53511121    -0.31300
H630        H  0.24241731  0.44560662  0.56481598     0.16300
H631        H  0.24401210  0.06678978  0.56345788     0.16300
H632        H  0.14005156  0.50373204  0.93841613     0.16400
H633        H  0.25092134  0.05999899  0.94293409     0.16300
C634        C  0.20827087  0.50205932  0.71211021     0.30200
C635        C  0.20975514  0.50267798  0.79154702     0.30200
C636        C  0.22624125  0.47600614  0.73150554    -0.06000
C637        C  0.22752115  0.03030802  0.73098496    -0.06800
C638        C  0.17554992  0.50171740  0.73250889    -0.06600
C639        C  0.22733623  0.47627866  0.77159764    -0.06000
C640        C  0.22775265  0.03063578  0.77120076    -0.06800
C641        C  0.17632103  0.50183020  0.77276755    -0.06700
C642        C  0.24567573  0.45179152  0.78248438    -0.32000
N643        N  0.25482722  0.43633741  0.75048657     0.14500
C644        C  0.24315520  0.45121169  0.71918258    -0.32000
H645        H  0.24695730  0.44481037  0.68950673     0.16400
C646        C  0.24270419  0.05688284  0.78212171    -0.31000
N647        N  0.25021275  0.07308464  0.75018364     0.13200
C648        C  0.24078299  0.05702796  0.71887828    -0.31000
C649        C  0.14510038  0.50500131  0.78528972    -0.31300
N650        N  0.12848748  0.00575392  0.75126594     0.13700
H651        H  0.13703520  0.50630575  0.81482557     0.16300
C652        C  0.14399091  0.50556164  0.72173803    -0.31300
H653        H  0.13461427  0.50829295  0.69289702     0.16300
H654        H  0.24321816  0.06430566  0.68937485     0.16300
H655        H  0.25179470  0.44552989  0.81163773     0.16400
H656        H  0.24755436  0.06385711  0.81127032     0.16300
C657        C  0.20804564  0.47516956  0.89698339    -0.13100
C658        C  0.21114906  0.50198247  0.91820795     0.09000
C659        C  0.20607658  0.03032768  0.89698071    -0.13100
C660        C  0.20636793  0.03064403  0.85660602    -0.13100
C661        C  0.20909354  0.50259990  0.83590836     0.09000
C662        C  0.20704934  0.47547475  0.85662506    -0.13100
H663        H  0.20546661  0.45382992  0.91143942     0.13000
H664        H  0.20351742  0.05145786  0.91200853     0.13000
H665        H  0.20343296  0.05196806  0.84225880     0.13000
H666        H  0.20396331  0.45435144  0.84176210     0.13000
C667        C  0.18311439  0.48814624  0.60653199    -0.13100
C668        C  0.20750327  0.50278764  0.58590118     0.09000
C669        C  0.23984787  0.01324590  0.60663237    -0.13100
C670        C  0.24000272  0.01210591  0.64701464    -0.13100
C671        C  0.20850049  0.50088280  0.66791314     0.09000
C672        C  0.18366659  0.48709565  0.64684495    -0.13100
H673        H  0.16386734  0.47680469  0.59159996     0.13000
H674        H  0.26091599  0.02166400  0.59217073     0.13000
H675        H  0.26116031  0.01974805  0.66212795     0.13000
H676        H  0.16498135  0.47473304  0.66124395     0.13000
C677        C  0.27735249  0.14970601  0.71746302    -0.13100
C678        C  0.29415614  0.15997199  0.75001218     0.09000
C679        C  0.29625148  0.14108313  0.78236450    -0.13100
C680        C  0.28205607  0.11277906  0.78226104    -0.13100
C681        C  0.26512093  0.10240854  0.74987027     0.09000
C682        C  0.26295331  0.12131635  0.71740225    -0.13100
H683        H  0.27501045  0.16370819  0.69213905     0.13000
H684        H  0.30968325  0.14770452  0.80760585     0.13000
H685        H  0.28508973  0.09886880  0.80751492     0.13000
H686        H  0.24979124  0.11450370  0.69205188     0.13000
C687        C  0.28653122  0.36095353  0.71904647    -0.13100
C688        C  0.30606531  0.35274652  0.75040995     0.09000
C689        C  0.30899924  0.37281494  0.78142654    -0.13100
C690        C  0.29265727  0.40033558  0.78120804    -0.13100
C691        C  0.27277605  0.40844476  0.75004270     0.09000
C692        C  0.27006162  0.38839507  0.71889323    -0.13100
H693        H  0.28331920  0.34583431  0.69496764     0.13000
H694        H  0.32424757  0.36738380  0.80572444     0.13000
H695        H  0.29587528  0.41532256  0.80539108     0.13000
H696        H  0.25459465  0.39351114  0.69470974     0.13000
C697        C  0.28070744  0.14503859  0.03509369    -0.13100
C698        C  0.30177589  0.15272777  0.00524763     0.09000
C699        C  0.30790462  0.13165950  0.97602816    -0.13100
C700        C  0.29266980  0.10376492  0.97610957    -0.13100
C701        C  0.27086180  0.09634494  0.00535198     0.09000
C702        C  0.26533751  0.11717059  0.03509810    -0.13100
H703        H  0.31515090  0.14674680  0.56070723     0.13000
H704        H  0.32463690  0.13672776  0.95317304     0.13000
H705        H  0.29800241  0.08798053  0.95329912     0.13000
H706        H  0.24842016  0.11231367  0.05781026     0.13000
C707        C  0.28011303  0.35649606  0.97271951    -0.13100
C708        C  0.30269258  0.34901558  0.00124617     0.09000
C709        C  0.30976927  0.37023229  0.03006496    -0.13100
C710        C  0.29426627  0.39816342  0.03057736    -0.13100
C711        C  0.27162837  0.40549140  0.00209543     0.09000
C712        C  0.26480475  0.38443931  0.97311215    -0.13100
H713        H  0.27377793  0.34049775  0.95054068     0.13000
H714        H  0.32747212  0.36533317  0.05204529     0.13000
H715        H  0.30017921  0.41418062  0.05292230     0.13000
H716        H  0.24707066  0.38939826  0.95116951     0.13000
C717        C  0.35985626  0.22351315  0.89587312    -0.13100
C718        C  0.35850850  0.25020880  0.91759610     0.09000
C719        C  0.36386591  0.27725864  0.89755221    -0.13100
C720        C  0.36414043  0.27807908  0.85719980    -0.13100
C721        C  0.35942846  0.25179739  0.83540043     0.09000
C722        C  0.36040905  0.22430372  0.85549716    -0.13100
H723        H  0.36168551  0.20192259  0.90980453     0.13000
H724        H  0.36835307  0.29790804  0.91300494     0.13000
H725        H  0.36883293  0.29929664  0.84326722     0.13000
H726        H  0.36218890  0.20324900  0.84011802     0.13000
C727        C  0.33105168  0.26470464  0.60695482    -0.13100
C728        C  0.35759383  0.25428732  0.58566825     0.09000
C729        C  0.38106727  0.23775100  0.60578458    -0.13100
C730        C  0.38093690  0.23643872  0.64605200    -0.13100
C731        C  0.35757767  0.25196716  0.66758836     0.09000
C732        C  0.33110038  0.26365369  0.64725625    -0.13100
H733        H  0.30988589  0.27324051  0.59260191     0.13000
H734        H  0.39914800  0.22505961  0.59048192     0.13000
H735        H  0.39859855  0.22237149  0.65997613     0.13000
H736        H  0.31020506  0.27184644  0.66245588     0.13000
C737        C  0.03018141  0.02161837  0.88508281    -0.16200
C738        C  0.03046757  0.99748395  0.86212724    -0.31400
H739        H  0.03028242  0.54241695  0.87717697     0.12800
H740        H  0.03043408  0.97489682  0.87404127     0.13400
C741        C  0.03701337  0.01400082  0.63484940    -0.16200
C742        C  0.03724381  0.99021778  0.61135880    -0.31400
H743        H  0.03717398  0.03674257  0.62341456     0.12800
H744        H  0.02883433  0.47734243  0.62418260     0.13400
C745        C  0.53693983  0.26249674  0.88610591    -0.16200
C746        C  0.53860460  0.23825019  0.86356561    -0.31400
H747        H  0.53593695  0.28500989  0.87401814     0.12800
H748        H  0.53942216  0.21584367  0.87603023     0.13400
C749        C  0.53454279  0.26396754  0.61357900    -0.16200
C750        C  0.53376885  0.23924291  0.63535801    -0.31400
H751        H  0.53530410  0.28621702  0.62644176     0.12800
H752        H  0.53293624  0.21707577  0.62221541     0.13400
C753        C  0.82797025  0.00347922  0.89323706    -0.13100
C754        C  0.85527947  0.49671411  0.91640341     0.09000
C755        C  0.87946778  0.48208681  0.89508335    -0.13100
C756        C  0.87893503  0.48201870  0.85458923    -0.13100
C757        C  0.85419838  0.49657796  0.83397615     0.09000
C758        C  0.82849391  0.00278500  0.85297018    -0.13100
H759        H  0.80638933  0.01144118  0.90715869     0.13000
H760        H  0.89872449  0.47034688  0.90967071     0.13000
H761        H  0.89790764  0.47038443  0.83941480     0.13000
H762        H  0.80739064  0.01047339  0.83763351     0.13000
C763        C  0.87512268  0.48151570  0.60413346    -0.13100
C764        C  0.85119086  0.49755454  0.58389852     0.09000
C765        C  0.83030498  0.00751642  0.60335504    -0.13100
C766        C  0.82939591  0.00647769  0.64369016    -0.13100
C767        C  0.85155994  0.49548756  0.66607274     0.09000
C768        C  0.87536482  0.48057408  0.64457549    -0.13100
H769        H  0.89382388  0.46972934  0.58865974     0.13000
H770        H  0.81008434  0.01735623  0.58836240     0.13000
H771        H  0.80866647  0.01581386  0.65804776     0.13000
H772        H  0.89435231  0.46831992  0.65901781     0.13000
C773        C  0.80252749  0.14424601  0.72099188    -0.13100
C774        C  0.78350113  0.15355457  0.75224578     0.09000
C775        C  0.78068885  0.13428607  0.78411742    -0.13100
C776        C  0.79530828  0.10607936  0.78415391    -0.13100
C777        C  0.81311305  0.09616036  0.75227899     0.09000
C778        C  0.81716772  0.11584309  0.72099674    -0.13100
H779        H  0.80575355  0.15870922  0.69630566     0.13000
H780        H  0.76588256  0.14028293  0.80847053     0.13000
H781        H  0.79121197  0.09143684  0.80847733     0.13000
H782        H  0.83123105  0.10919208  0.69627295     0.13000
C783        C  0.79207607  0.34885041  0.71922850    -0.13100
C784        C  0.77319123  0.33993225  0.75070619     0.09000
C785        C  0.77117193  0.35924745  0.78270345    -0.13100
C786        C  0.78725837  0.38677255  0.78309248    -0.13100
C787        C  0.80578774  0.39588077  0.75143297     0.09000
C788        C  0.80814229  0.37642998  0.71960227    -0.13100
H789        H  0.79470105  0.33449254  0.69432338     0.13000
H790        H  0.75640733  0.35353404  0.80718367     0.13000
H791        H  0.78437831  0.40125779  0.80783752     0.13000
H792        H  0.82261128  0.38239272  0.69496947     0.13000
C793        C  0.79508591  0.14400433  0.46473366    -0.13100
C794        C  0.77580607  0.15177774  0.99793986     0.09000
C795        C  0.76972356  0.13148527  0.96782553    -0.13100
C796        C  0.78395598  0.10315091  0.96754365    -0.13100
C797        C  0.80456751  0.09421594  0.99742463     0.09000
C798        C  0.81066581  0.11603285  0.46486384    -0.13100
H799        H  0.79788248  0.15860212  0.44007528     0.13000
H800        H  0.75299741  0.13708784  0.94504710     0.13000
H801        H  0.77783815  0.08773158  0.94458942     0.13000
H802        H  0.82511305  0.10978239  0.44030085     0.13000
C803        C  0.77238421  0.35962817  0.96468113    -0.13100
C804        C  0.77689174  0.33901477  0.99488618     0.09000
C805        C  0.79834137  0.34622666  0.02470697    -0.13100
C806        C  0.81428013  0.37377329  0.02486047    -0.13100
C807        C  0.80913056  0.39470971  0.99519932     0.09000
C808        C  0.78834043  0.38716759  0.96482365    -0.13100
H809        H  0.75567597  0.35491206  0.94157951     0.13000
H810        H  0.75288429  0.35597759  0.55441020     0.13000
H811        H  0.83063162  0.37872399  0.04823937     0.13000
H812        H  0.78355056  0.40295498  0.94182071     0.13000
C813        C  0.70878175  0.21746689  0.89411320    -0.13100
C814        C  0.71033546  0.24472993  0.91471272     0.09000
C815        C  0.70603685  0.27138710  0.89354486    -0.13100
C816        C  0.70624877  0.27107429  0.85321856    -0.13100
C817        C  0.71105564  0.24411903  0.83269869     0.09000
C818        C  0.70936714  0.21715953  0.85374485    -0.13100
H819        H  0.70668560  0.19626364  0.90900123     0.13000
H820        H  0.70234318  0.29259978  0.90809460     0.08600
H821        H  0.70228126  0.29204377  0.83825801     0.13000
H822        H  0.70822735  0.19575379  0.83907671     0.13000
C823        C  0.70801961  0.27157511  0.60435721    -0.13100
C824        C  0.71246580  0.24507519  0.58294770     0.09000
C825        C  0.71159950  0.21768808  0.60335947    -0.13100
C826        C  0.71216195  0.21717265  0.64374434    -0.13100
C827        C  0.71311263  0.24402537  0.66507169     0.09000
C828        C  0.70814529  0.27103875  0.64467814    -0.13100
H829        H  0.70406828  0.29282913  0.58996954     0.13000
H830        H  0.70971049  0.19652406  0.58834720     0.13000
H831        H  0.71122360  0.19567848  0.65818877     0.13000
H832        H  0.70378408  0.29188155  0.65975030     0.13000
C833        C  0.70998485  0.74954691  0.46029045     0.30200
C834        C  0.71142458  0.74704388  0.03996096     0.30200
C835        C  0.67738746  0.74550977  0.47978675    -0.06000
C836        C  0.73039042  0.72449199  0.47894061    -0.06800
C837        C  0.72341743  0.77754440  0.48087709    -0.06600
C838        C  0.67865775  0.75003336  0.02024291    -0.06000
C839        C  0.72527715  0.71817571  0.02175042    -0.06800
C840        C  0.73135882  0.77130931  0.01923346    -0.06700
C841        C  0.64729106  0.75334307  0.03192926    -0.32000
N842        N  0.62845902  0.75416293  0.00006125     0.14500
C843        C  0.64590821  0.74535867  0.46791500    -0.32000
H844        H  0.63722707  0.74733339  0.43862455     0.16400
C845        C  0.74621592  0.69626406  0.03456813    -0.31000
N846        N  0.76233888  0.68677680  0.49729546     0.13200
C847        C  0.75045376  0.70194819  0.46629608    -0.31000
C848        C  0.75106510  0.79482062  0.02948448    -0.31300
N849        N  0.75444839  0.81442089  0.50290905     0.13700
H850        H  0.75671496  0.80202121  0.05843144     0.16300
C851        C  0.74352492  0.80070081  0.47057895    -0.31300
H852        H  0.75079033  0.80649919  0.44172152     0.16300
H853        H  0.75587471  0.69712765  0.43654060     0.16300
H854        H  0.63870225  0.75436506  0.06127826     0.16400
H855        H  0.75364899  0.69283043  0.06406830     0.16300
C856        C  0.71004502  0.74647764  0.21054019     0.30200
C857        C  0.70931851  0.74610112  0.28983420     0.30200
C858        C  0.67782147  0.75379214  0.22963920    -0.06000
C859        C  0.71968768  0.71650676  0.23003033    -0.06800
C860        C  0.73312120  0.76864313  0.23057916    -0.06600
C861        C  0.67743445  0.75369687  0.26969548    -0.06000
C862        C  0.71932977  0.71622680  0.27040032    -0.06800
C863        C  0.73281014  0.76827254  0.27075267    -0.06700
C864        C  0.64612111  0.75876800  0.28084996    -0.32000
N865        N  0.62780017  0.76210780  0.24873191     0.14500
C866        C  0.64677298  0.75877519  0.21731706    -0.32000
H867        H  0.63837062  0.75879378  0.18780818     0.16400
C868        C  0.73775689  0.69179215  0.28176054    -0.31000
N869        N  0.74801936  0.67671440  0.25007209     0.13200
C870        C  0.73827887  0.69237541  0.21864136    -0.31000
C871        C  0.75389867  0.79000962  0.28302602    -0.31300
N872        N  0.76618019  0.80436904  0.25183870     0.13700
H873        H  0.75927034  0.79555911  0.31261935     0.16300
C874        C  0.75419703  0.79095072  0.21969154    -0.31300
H875        H  0.75916147  0.79800806  0.19055426     0.16300
H876        H  0.74626105  0.68774049  0.18964312     0.16300
H877        H  0.63707718  0.75872635  0.31003351     0.16400
H878        H  0.74454219  0.68619919  0.31091652     0.16300
C879        C  0.85151662  0.49773986  0.46053544     0.30200
C880        C  0.85530770  0.49486801  0.04011204     0.30200
C881        C  0.89043594  0.99549970  0.47862914    -0.06000
C882        C  0.83041831  0.52241147  0.47914113    -0.06800
C883        C  0.84077108  0.96881067  0.47964465    -0.06600
C884        C  0.88611366  0.00232605  0.01962170    -0.06000
C885        C  0.83499909  0.52007674  0.02146993    -0.06800
C886        C  0.84417487  0.96544224  0.01838720    -0.06700
C887        C  0.91951938  0.50416843  0.03368611    -0.32000
N888        N  0.93384194  0.51148879  0.50020576     0.14500
C889        C  0.91539702  0.50798319  0.46836757    -0.32000
H890        H  0.92437170  0.50803959  0.43918417     0.16400
C891        C  0.82639346  0.54840967  0.03405240    -0.31000
N892        N  0.81811962  0.56924631  0.49800230     0.13200
C893        C  0.82384806  0.55137161  0.46711994    -0.31000
C894        C  0.83267409  0.93775492  0.02945071    -0.31300
N895        N  0.81961650  0.92643758  0.50146428     0.13700
H896        H  0.82802690  0.93062808  0.05867147     0.16300
C897        C  0.82741040  0.94188166  0.46900527    -0.31300
H898        H  0.82396519  0.93407039  0.43980513     0.16300
H899        H  0.82610837  0.55930081  0.43786989     0.16300
H900        H  0.92820958  0.50403399  0.06303902     0.16400
H901        H  0.82741241  0.55614490  0.06352476     0.16300
C902        C  0.85205024  0.99380648  0.20913838     0.30200
C903        C  0.85333820  0.99423298  0.28851221     0.30200
C904        C  0.88506074  0.99953876  0.22800854    -0.06000
C905        C  0.83102524  0.51838636  0.22956386    -0.06800
C906        C  0.84127438  0.96486278  0.22929758    -0.06600
C907        C  0.88565473  0.99988938  0.26830990    -0.06000
C908        C  0.83080230  0.51865956  0.26995843    -0.06800
C909        C  0.84197574  0.96518393  0.26929871    -0.06700
C910        C  0.91601630  0.50594701  0.28238755    -0.32000
N911        N  0.93458106  0.50866465  0.25055507     0.14500
C912        C  0.91605266  0.50544351  0.21880466    -0.32000
H913        H  0.92492748  0.50607109  0.18959083     0.16400
C914        C  0.82037306  0.54690812  0.28093756    -0.31000
N915        N  0.81286354  0.56319683  0.24917611     0.13200
C916        C  0.82065872  0.54648679  0.21787534    -0.31000
C917        C  0.83180112  0.93753668  0.28171554    -0.31300
N918        N  0.82477272  0.92028431  0.25048525     0.13700
H919        H  0.82997022  0.93051279  0.31144741     0.16300
C920        C  0.83055541  0.93687069  0.21827699    -0.31300
H921        H  0.82669906  0.92942795  0.18899581     0.16300
H922        H  0.82100933  0.55502852  0.18873475     0.16300
H923        H  0.92489544  0.50683575  0.31165550     0.16400
H924        H  0.81976053  0.55550412  0.30998681     0.16300
O925        O  0.53290899  0.76799249  0.44141486    -0.71600
O926        O  0.53287070  0.77527187  0.05430446    -0.71800
O927        O  0.57894277  0.77025092  0.49469781    -0.71700
O928        O  0.48766800  0.77890272  0.00006712    -0.71700
O929        O  0.48546067  0.72626616  0.49950453    -0.71600
O930        O  0.57890327  0.73013010  0.99817086    -0.71600
O931        O  0.53101815  0.72658644  0.04921336    -0.71600
O932        O  0.53223197  0.71935986  0.44725113    -0.71800
V933        V  0.53344087  0.77167260  0.49524488     1.35200
V934        V  0.53348180  0.73121956  0.99539434     1.35200
C935        C  0.53276841  0.74228099  0.42599005     0.77700
C936        C  0.53133924  0.74971936  0.07004596     0.77700
C937        C  0.59300470  0.74532718  0.49937142     0.77600
C938        C  0.47137866  0.75139622  0.49741571     0.77500
O939        O  0.48625133  0.74241591  0.24811313    -0.71600
O940        O  0.57717372  0.73991254  0.24619510    -0.71800
O941        O  0.53257801  0.73978887  0.30163546    -0.71700
O942        O  0.53075842  0.74346961  0.19276296    -0.71700
O943        O  0.53294144  0.79225886  0.19568000    -0.71600
O944        O  0.53310948  0.78866815  0.30347719    -0.71600
O945        O  0.57890455  0.78868989  0.24978821    -0.71600
O946        O  0.48711765  0.79128567  0.24965889    -0.71800
V947        V  0.53171551  0.74233683  0.24718559     1.35200
V948        V  0.53299877  0.78926952  0.24958610     1.35200
C949        C  0.47123332  0.76706821  0.24911110     0.77700
C950        C  0.59349748  0.76369639  0.24811772     0.77700
C951        C  0.53304628  0.76390706  0.32086485     0.77600
C952        C  0.53162095  0.76864332  0.17590557     0.77500
O953        O  0.98810359  0.53142598  0.00557518    -0.71600
O954        O  0.07427539  0.53689282  0.50332924    -0.71800
O955        O  0.02742756  0.54227614  0.45072510    -0.71700
O956        O  0.03437479  0.52508411  0.05832419    -0.71700
O957        O  0.03025697  0.98148751  0.04846280    -0.71600
O958        O  0.03497961  0.98493940  0.44020141    -0.71600
O959        O  0.07579720  0.98570357  0.99489048    -0.71600
O960        O  0.99077087  0.97724593  0.49422007    -0.71800
V961        V  0.03372527  0.53001703  0.00470750     1.35200
V962        V  0.03032904  0.98773561  0.99497457     1.35200
C963        C  0.97258485  0.50720410  0.00250899     0.77700
C964        C  0.09438266  0.50612890  0.99851414     0.77700
C965        C  0.02820090  0.51981129  0.42870107     0.77600
C966        C  0.03526422  0.49898152  0.07244156     0.77500
O967        O  0.07534687  0.53309920  0.25475699    -0.71600
O968        O  0.98402129  0.53340760  0.25390727    -0.71800
O969        O  0.02934938  0.52894814  0.30775933    -0.71700
O970        O  0.03014937  0.53770111  0.20020481    -0.71700
O971        O  0.03173172  0.99116992  0.19020561    -0.71600
O972        O  0.02978349  0.97667875  0.29668491    -0.71600
O973        O  0.98522563  0.98366509  0.24175451    -0.71600
O974        O  0.07625937  0.98429441  0.24472174    -0.71800
V975        V  0.02970261  0.53236849  0.25398739     1.35200
V976        V  0.03072485  0.98489831  0.24351452     1.35200
C977        C  0.09063450  0.50858739  0.25244166     0.77700
C978        C  0.96878125  0.50906515  0.25027914     0.77700
C979        C  0.02862829  0.50319486  0.32282716     0.77600
C980        C  0.03130202  0.51484548  0.17886716     0.77500
C981        C  0.35351089  0.75266441  0.45995419     0.30200
C982        C  0.35579898  0.75228170  0.03920603     0.30200
C983        C  0.38664368  0.75245675  0.47917932    -0.06000
C984        C  0.33694109  0.77958894  0.47985342    -0.06800
C985        C  0.33667596  0.72602911  0.47975142    -0.06600
C986        C  0.38867853  0.75181996  0.01897521    -0.06000
C987        C  0.33962962  0.77920978  0.01899240    -0.06800
C988        C  0.33854565  0.72547172  0.02086229    -0.06700
C989        C  0.42047640  0.75484970  0.02928285    -0.32000
N990        N  0.43726174  0.75301693  0.49798012     0.14500
C991        C  0.41791385  0.75260800  0.46663181    -0.32000
H992        H  0.42603803  0.75222476  0.43706371     0.16400
C993        C  0.32635221  0.80622582  0.03000873    -0.31000
N994        N  0.31473214  0.82207715  0.50075120     0.13200
C995        C  0.32151853  0.80566400  0.46880769    -0.31000
C996        C  0.32304812  0.70033904  0.03428154    -0.31300
N997        N  0.31158023  0.68518630  0.50069817     0.13700
H998        H  0.32033676  0.69381898  0.06409793     0.16300
C999        C  0.31999501  0.70078281  0.46869215    -0.31300
H1000       H  0.31404024  0.69419506  0.43959162     0.16300
H1001       H  0.31550238  0.81233681  0.43975344     0.16300
H1002       H  0.43011610  0.75783220  0.05795701     0.16400
H1003       H  0.32424153  0.81459841  0.05911958     0.16300
C1004       C  0.35447881  0.75232367  0.20985817     0.30200
C1005       C  0.35518802  0.75157451  0.28928492     0.30200
C1006       C  0.38710876  0.75857480  0.22927513    -0.06000
C1007       C  0.33297330  0.77580130  0.23010094    -0.06800
C1008       C  0.34394680  0.72288459  0.22898510    -0.06600
C1009       C  0.38739372  0.75795411  0.26944676    -0.06000
C1010       C  0.33289169  0.77513469  0.27036153    -0.06800
C1011       C  0.34390076  0.72250918  0.26915996    -0.06700
C1012       C  0.41854148  0.76298769  0.28117167    -0.32000
N1013       N  0.43692378  0.76717390  0.24945342     0.14500
C1014       C  0.41812475  0.76453708  0.21769758    -0.32000
H1015       H  0.42680048  0.76587213  0.18843981     0.16400
C1016       C  0.31608452  0.80015018  0.28256022    -0.31000
N1017       N  0.30730131  0.81659809  0.25128678     0.13200
C1018       C  0.31787391  0.80206171  0.21934352    -0.31000
C1019       C  0.32705052  0.69724864  0.27984989    -0.31300
N1020       N  0.31865090  0.68154291  0.24788636     0.13700
H1021       H  0.31931439  0.69163358  0.30862080     0.16300
C1022       C  0.32840522  0.69734778  0.21656284    -0.31300
H1023       H  0.32366361  0.69135061  0.18692028     0.16300
H1024       H  0.31624880  0.81082527  0.19043207     0.16300
H1025       H  0.42743181  0.76249401  0.31047455     0.16400
H1026       H  0.31238182  0.80702309  0.31204264     0.16300
C1027       C  0.20911951  0.00088903  0.04102665     0.30200
C1028       C  0.21351442  0.00527641  0.46158428     0.30200
C1029       C  0.17599132  0.00308633  0.02103136    -0.06000
C1030       C  0.22774357  0.52791888  0.02342478    -0.06800
C1031       C  0.22483632  0.97399689  0.02070533    -0.06600
C1032       C  0.18047213  0.00450061  0.48049829    -0.06000
C1033       C  0.22604672  0.52954733  0.48202778    -0.06800
C1034       C  0.23095714  0.97896065  0.48151279    -0.06700
C1035       C  0.14935562  0.00456328  0.46745363    -0.32000
N1036       N  0.12991691  0.00570259  0.49849139     0.14500
C1037       C  0.14427372  0.00669779  0.03172408    -0.32000
H1038       H  0.13489826  0.00832347  0.06065463     0.16400
C1039       C  0.24330430  0.55435114  0.47068863    -0.31000
N1040       N  0.25162759  0.57038200  0.50244385     0.13200
C1041       C  0.24199654  0.55402637  0.03608215    -0.31000
C1042       C  0.24803076  0.95389052  0.47051956    -0.31300
N1043       N  0.25693490  0.93835816  0.50255310     0.13700
H1044       H  0.25300373  0.94706103  0.44128445     0.16300
C1045       C  0.24131073  0.94858516  0.03195199    -0.31300
H1046       H  0.24552615  0.94124523  0.06123084     0.16300
H1047       H  0.24428131  0.56141929  0.06561995     0.16300
H1048       H  0.14138666  0.00413580  0.43778210     0.16400
H1049       H  0.24856607  0.56092531  0.44144381     0.16300
C1050       C  0.20883857  0.00123870  0.21144819     0.30200
C1051       C  0.20876216  0.00257362  0.29090772     0.30200
C1052       C  0.22323612  0.97379179  0.23180467    -0.06000
C1053       C  0.22503184  0.52888415  0.23127920    -0.06800
C1054       C  0.17574392  0.00418891  0.23088066    -0.06600
C1055       C  0.22360715  0.97438788  0.27193741    -0.06000
C1056       C  0.22566553  0.52916922  0.27149461    -0.06800
C1057       C  0.17579808  0.00469838  0.27115111    -0.06700
C1058       C  0.23923137  0.94854654  0.28366875    -0.32000
N1059       N  0.24710115  0.93207159  0.25213317     0.14500
C1060       C  0.23757830  0.94746300  0.22029300    -0.32000
H1061       H  0.24065358  0.94004236  0.19086662     0.16400
C1062       C  0.24263053  0.55439767  0.28221000    -0.31000
N1063       N  0.25107340  0.56992657  0.25006492     0.13200
C1064       C  0.24018210  0.55455424  0.21891941    -0.31000
C1065       C  0.14435445  0.00727393  0.28291148    -0.31300
N1066       N  0.12479160  0.50811766  0.25251591     0.13700
H1067       H  0.13574861  0.00766815  0.31227982     0.16300
C1068       C  0.14420042  0.00700988  0.21931665    -0.31300
H1069       H  0.13513848  0.00800932  0.19016081     0.16300
H1070       H  0.24312194  0.56153371  0.18936678     0.16300
H1071       H  0.24553382  0.94245841  0.31284299     0.16400
H1072       H  0.24820439  0.56117714  0.31130297     0.16300
C1073       C  0.20672641  0.97761470  0.39744169    -0.13100
C1074       C  0.21152012  0.00482455  0.41735102     0.09000
C1075       C  0.20362535  0.53071200  0.39694053    -0.13100
C1076       C  0.20393836  0.53050070  0.35655480    -0.13100
C1077       C  0.20752585  0.00339286  0.33525125     0.09000
C1078       C  0.20472645  0.97691542  0.35715177    -0.13100
H1079       H  0.20379949  0.95677722  0.41298050     0.13000
H1080       H  0.20104872  0.55204267  0.41147933     0.13000
H1081       H  0.20145505  0.55167728  0.34165595     0.13000
H1082       H  0.20020430  0.95557919  0.34340166     0.13000
C1083       C  0.18525614  0.98476118  0.10595084    -0.13100
C1084       C  0.20998342  0.99881104  0.08519975     0.09000
C1085       C  0.23799186  0.50826397  0.10765108    -0.13100
C1086       C  0.23716664  0.50866670  0.14798817    -0.13100
C1087       C  0.20981162  0.99910576  0.16727185     0.09000
C1088       C  0.18526714  0.98475632  0.14633231    -0.13100
H1089       H  0.16608541  0.97323957  0.09114134     0.13000
H1090       H  0.25978965  0.51514341  0.09336431     0.13000
H1091       H  0.25849873  0.51555502  0.16333861     0.13000
H1092       H  0.16620410  0.97308046  0.16099409     0.13000
C1093       C  0.28201033  0.64494990  0.21687103    -0.13100
C1094       C  0.30164138  0.65335647  0.24795584     0.09000
C1095       C  0.30458271  0.63367637  0.27943819    -0.13100
C1096       C  0.28820440  0.60639285  0.28001282    -0.13100
C1097       C  0.26830218  0.59802376  0.24915773     0.09000
C1098       C  0.26546558  0.61764882  0.21750454    -0.13100
H1099       H  0.27890465  0.65970124  0.19238208     0.13000
H1100       H  0.32004226  0.63912963  0.30348432     0.13000
H1101       H  0.29160608  0.59169020  0.30447473     0.13000
H1102       H  0.25000107  0.61226894  0.19346535     0.13000
C1103       C  0.29706016  0.86621937  0.22143903    -0.13100
C1104       C  0.29234438  0.84589776  0.25191677     0.09000
C1105       C  0.27291778  0.85477749  0.28297082    -0.13100
C1106       C  0.25833554  0.88313229  0.28326714    -0.13100
C1107       C  0.26274774  0.90316802  0.25244349     0.09000
C1108       C  0.28235079  0.89440542  0.22164445    -0.13100
H1109       H  0.31252974  0.86066712  0.19754034     0.13000
H1110       H  0.26848257  0.83963676  0.30671466     0.13000
H1111       H  0.24302358  0.88911177  0.30720735     0.13000
H1112       H  0.28672996  0.90954835  0.19787980     0.13000
C1113       C  0.27561903  0.64838578  0.53119937    -0.13100
C1114       C  0.29627644  0.65631180  0.50106842     0.09000
C1115       C  0.30243826  0.63538241  0.47172548    -0.13100
C1116       C  0.28818070  0.60707126  0.47245555    -0.13100
C1117       C  0.26726940  0.59917111  0.50242501     0.09000
C1118       C  0.26119356  0.62014337  0.53182482    -0.13100
H1119       H  0.26876132  0.66456383  0.05461469     0.13000
H1120       H  0.31879066  0.64071417  0.44855839     0.13000
H1121       H  0.29377777  0.59127179  0.44977192     0.13000
H1122       H  0.24474131  0.61503233  0.55494369     0.13000
C1123       C  0.30502176  0.87148591  0.47059868    -0.13100
C1124       C  0.30054336  0.85157977  0.50143916     0.09000
C1125       C  0.28239485  0.86104711  0.53324491    -0.13100
C1126       C  0.26860363  0.88965317  0.53393914    -0.13100
C1127       C  0.27272292  0.90949705  0.50286473     0.09000
C1128       C  0.29137606  0.90015121  0.47135921    -0.13100
H1129       H  0.31947477  0.86506699  0.44609511     0.13000
H1130       H  0.27824291  0.84607818  0.55725181     0.13000
H1131       H  0.25398219  0.89582110  0.55838542     0.13000
H1132       H  0.29563093  0.91501094  0.44729526     0.13000
C1133       C  0.35888415  0.72532582  0.39534222    -0.13100
C1134       C  0.35521884  0.75246362  0.41572274     0.09000
C1135       C  0.35864381  0.77924001  0.39448810    -0.13100
C1136       C  0.35955468  0.77883864  0.35410796    -0.13100
C1137       C  0.35709397  0.75167064  0.33356369     0.09000
C1138       C  0.35972700  0.72491657  0.35502903    -0.13100
H1139       H  0.36194488  0.70428877  0.41045858     0.13000
H1140       H  0.36142930  0.80056744  0.40890312     0.13000
H1141       H  0.36240594  0.79989400  0.33898001     0.13000
H1142       H  0.36367064  0.70358828  0.34102795     0.13000
C1143       C  0.32800209  0.76177891  0.10371988    -0.13100
C1144       C  0.35522392  0.75177704  0.08342722     0.09000
C1145       C  0.37937508  0.73710853  0.10485697    -0.13100
C1146       C  0.37878126  0.73696359  0.14521885    -0.13100
C1147       C  0.35393702  0.75130894  0.16560010     0.09000
C1148       C  0.32731564  0.76146150  0.14406918    -0.13100
H1149       H  0.30684766  0.76938568  0.08843069     0.13000
H1150       H  0.39845414  0.72501086  0.09062744     0.13000
H1151       H  0.39777731  0.72536205  0.16049865     0.13000
H1152       H  0.30541909  0.76834985  0.15810652     0.13000
C1153       C  0.02786561  0.52376125  0.38731929    -0.16200
C1154       C  0.02807547  0.49977435  0.36420478    -0.31400
H1155       H  0.03144118  0.03921686  0.37519918     0.12800
H1156       H  0.02809066  0.47708697  0.37581377     0.13400
C1157       C  0.03280143  0.51848035  0.13740204    -0.16200
C1158       C  0.03530742  0.49476872  0.11394576    -0.31400
H1159       H  0.03158034  0.54119944  0.12597187     0.12800
H1160       H  0.03063712  0.97655764  0.12227405     0.13400
C1161       C  0.53309265  0.73940046  0.38411019    -0.16200
C1162       C  0.53342354  0.76425752  0.36260771    -0.31400
H1163       H  0.53279409  0.71721811  0.37101412     0.12800
H1164       H  0.53372444  0.78630457  0.37612017     0.13400
C1165       C  0.53020077  0.74674233  0.11174036    -0.16200
C1166       C  0.53135468  0.77102466  0.13419192    -0.31400
H1167       H  0.52892785  0.72434828  0.12411234     0.12800
H1168       H  0.53263591  0.79339446  0.12171142     0.13400
C1169       C  0.82427954  0.50584082  0.39499839    -0.13100
C1170       C  0.85560153  0.99315040  0.41489629     0.09000
C1171       C  0.87948901  0.97840335  0.39326777    -0.13100
C1172       C  0.87847547  0.97831498  0.35286701    -0.13100
C1173       C  0.85348859  0.99286390  0.33276003     0.09000
C1174       C  0.82421104  0.50473332  0.35472401    -0.13100
H1175       H  0.80319426  0.51458081  0.40928851     0.13000
H1176       H  0.89873187  0.96634379  0.40737033     0.13000
H1177       H  0.89724030  0.96666133  0.33738358     0.13000
H1178       H  0.80286690  0.51226031  0.33983210     0.13000
C1179       C  0.87632270  0.97812973  0.10366840    -0.13100
C1180       C  0.85218919  0.99310546  0.08263802     0.09000
C1181       C  0.82655864  0.50272911  0.10454730    -0.13100
C1182       C  0.82591057  0.50272182  0.14481584    -0.13100
C1183       C  0.85121207  0.99216939  0.16486432     0.09000
C1184       C  0.87570682  0.97746087  0.14411561    -0.13100
H1185       H  0.89581794  0.96698241  0.08882134     0.13000
H1186       H  0.80550329  0.51070978  0.08938291     0.13000
H1187       H  0.80435112  0.51054133  0.15888378     0.13000
H1188       H  0.89461420  0.96556149  0.15913575     0.13000
C1189       C  0.76348282  0.62944208  0.21764976    -0.13100
C1190       C  0.76610837  0.64893947  0.24935008     0.09000
C1191       C  0.78563124  0.64022211  0.28052645    -0.13100
C1192       C  0.80171407  0.61251604  0.28015240    -0.13100
C1193       C  0.79858053  0.59283154  0.24863597     0.09000
C1194       C  0.77948792  0.60183416  0.21728499    -0.13100
H1195       H  0.74817671  0.63508027  0.19349768     0.13000
H1196       H  0.78860030  0.65478964  0.30519051     0.13000
H1197       H  0.81655628  0.60658969  0.30458620     0.13000
H1198       H  0.77595589  0.58706278  0.19291552     0.13000
C1199       C  0.80254917  0.84149971  0.22134369    -0.13100
C1200       C  0.78379429  0.83229206  0.25281007     0.09000
C1201       C  0.78029833  0.85204554  0.28414258    -0.13100
C1202       C  0.79417806  0.88050694  0.28355512    -0.13100
C1203       C  0.81203713  0.89014959  0.25165158     0.09000
C1204       C  0.81648719  0.87012161  0.22075451    -0.13100
H1205       H  0.80614474  0.82673534  0.19697606     0.13000
H1206       H  0.76556904  0.84617572  0.30855821     0.13000
H1207       H  0.78979288  0.89537792  0.30761209     0.13000
H1208       H  0.83062284  0.87659761  0.19605517     0.13000
C1209       C  0.77768314  0.63583718  0.03849778    -0.13100
C1210       C  0.78074772  0.65908102  0.49631602     0.09000
C1211       C  0.79412798  0.64693658  0.53019239    -0.13100
C1212       C  0.80755582  0.61812706  0.53048127    -0.13100
C1213       C  0.80829548  0.60052986  0.49682786     0.09000
C1214       C  0.79251590  0.60763315  0.03823646    -0.13100
H1215       H  0.76473074  0.64250001  0.06405973     0.13000
H1216       H  0.79374991  0.65925081  0.55696815     0.13000
H1217       H  0.81672095  0.60967800  0.55749903     0.13000
H1218       H  0.79042928  0.59377188  0.06365096     0.13000
C1219       C  0.79355581  0.84899865  0.47318590    -0.13100
C1220       C  0.77358573  0.84125292  0.50415029     0.09000
C1221       C  0.77065602  0.86126185  0.53521802    -0.13100
C1222       C  0.78623564  0.88890541  0.53462605    -0.13100
C1223       C  0.80516891  0.89716905  0.50298007     0.09000
C1224       C  0.80917244  0.87667952  0.47260085    -0.13100
H1225       H  0.79693092  0.83380979  0.44921870     0.13000
H1226       H  0.80591802  0.82782891  0.04897811     0.13000
H1227       H  0.78240027  0.90425757  0.55832851     0.13000
H1228       H  0.82427591  0.88205172  0.44829950     0.13000
C1229       C  0.70335612  0.72200116  0.39643062    -0.13100
C1230       C  0.70808363  0.74929254  0.41610763     0.09000
C1231       C  0.70757013  0.77584888  0.39405295    -0.13100
C1232       C  0.70713692  0.77471789  0.35369787    -0.13100
C1233       C  0.70745487  0.74704407  0.33401366     0.09000
C1234       C  0.70308918  0.72086572  0.35611258    -0.13100
H1235       H  0.69999992  0.70133651  0.41232033     0.13000
H1236       H  0.70644333  0.79761684  0.40765956     0.08600
H1237       H  0.70649592  0.79564421  0.33786039     0.13000
H1238       H  0.69879079  0.69944433  0.34248685     0.13000
C1239       C  0.70980428  0.77450568  0.10527501    -0.13100
C1240       C  0.70972551  0.74748408  0.08415622     0.09000
C1241       C  0.70403198  0.72077477  0.10472761    -0.13100
C1242       C  0.70356687  0.72050978  0.14499333    -0.13100
C1243       C  0.70878296  0.74696002  0.16630501     0.09000
C1244       C  0.70933453  0.77423749  0.14572757    -0.13100
H1245       H  0.70970683  0.79594071  0.09068859     0.13000
H1246       H  0.69965375  0.69989004  0.08971204     0.13000
H1247       H  0.69841905  0.69949958  0.15922539     0.13000
H1248       H  0.70918615  0.79546735  0.16086390     0.13000
C1249       C  0.71118297  0.74462745  0.96059993     0.30200
C1250       C  0.71008769  0.74756306  0.53963299     0.30200
C1251       C  0.67854349  0.74879888  0.98017566    -0.06000
C1252       C  0.72521981  0.71686936  0.98150063    -0.06800
C1253       C  0.73110193  0.77010489  0.97896485    -0.06600
C1254       C  0.67741112  0.74439259  0.51986627    -0.06000
C1255       C  0.73047375  0.72345674  0.51905722    -0.06800
C1256       C  0.72340802  0.77650205  0.52122104    -0.06700
C1257       C  0.64590512  0.74316956  0.53150040    -0.32000
N1258       N  0.62711519  0.74368909  0.49959179     0.14500
C1259       C  0.64711199  0.75125299  0.96835505    -0.32000
H1260       H  0.63833737  0.75039265  0.93902420     0.16400
C1261       C  0.75069468  0.70033747  0.52955751    -0.31000
N1262       N  0.75807298  0.68097739  0.00387746     0.13200
C1263       C  0.74646417  0.69429414  0.97148988    -0.31000
C1264       C  0.74315432  0.79922944  0.53384659    -0.31300
N1265       N  0.76196446  0.80834042  0.99698985     0.13700
H1266       H  0.75039574  0.80335647  0.56329021     0.16300
C1267       C  0.75022941  0.79315608  0.96606119    -0.31300
H1268       H  0.75534175  0.79848703  0.93635149     0.16300
H1269       H  0.75389760  0.68870150  0.94261406     0.16300
H1270       H  0.63721872  0.74325208  0.56083868     0.16400
H1271       H  0.75606783  0.69367672  0.55871606     0.16300
C1272       C  0.71076879  0.74528281  0.71023955     0.30200
C1273       C  0.71100462  0.74438958  0.78962879     0.30200
C1274       C  0.67908759  0.73730750  0.72969770    -0.06000
C1275       C  0.73432218  0.72300421  0.72932240    -0.06800
C1276       C  0.72016823  0.77489952  0.73020726    -0.06600
C1277       C  0.67907472  0.73688745  0.76976012    -0.06000
C1278       C  0.73441238  0.72230936  0.76961933    -0.06800
C1279       C  0.72049976  0.77449836  0.77060417    -0.06700
C1280       C  0.64786217  0.73211805  0.78112519    -0.32000
N1281       N  0.62936046  0.72937080  0.74909781     0.14500
C1282       C  0.64806217  0.73282835  0.71758979    -0.32000
H1283       H  0.63934640  0.73401952  0.68823967     0.16400
C1284       C  0.75479472  0.69923881  0.78036608    -0.31000
N1285       N  0.76666240  0.68589454  0.74809768     0.13200
C1286       C  0.75484600  0.70081702  0.71696059    -0.31000
C1287       C  0.74028457  0.79782333  0.78205283    -0.31300
N1288       N  0.75032374  0.81304286  0.75053069     0.13700
H1289       H  0.74805190  0.80258019  0.81110448     0.16300
C1290       C  0.73947200  0.79840359  0.71899102    -0.31300
H1291       H  0.74722551  0.80326660  0.68995787     0.16300
H1292       H  0.75999866  0.69525404  0.68734073     0.16300
H1293       H  0.63890752  0.73264872  0.81033595     0.16400
H1294       H  0.75917095  0.69152117  0.80941571     0.16300
C1295       C  0.85592322  0.49710293  0.96078290     0.30200
C1296       C  0.85149247  0.49907555  0.53970030     0.30200
C1297       C  0.88642456  0.00245954  0.97931661    -0.06000
C1298       C  0.83519657  0.52120053  0.98111520    -0.06800
C1299       C  0.84468211  0.96569383  0.97846112    -0.06600
C1300       C  0.89047329  0.99631675  0.51902448    -0.06000
C1301       C  0.83028481  0.52307051  0.51970484    -0.06800
C1302       C  0.84100696  0.96963150  0.51966103    -0.06700
C1303       C  0.91518372  0.50960259  0.53194744    -0.32000
N1304       N  0.93839088  0.50728055  0.00226371     0.14500
C1305       C  0.91999404  0.50587068  0.97011907    -0.32000
H1306       H  0.92912547  0.50735016  0.94106647     0.16400
C1307       C  0.82344167  0.55239889  0.52999727    -0.31000
N1308       N  0.81981126  0.56624333  0.00334679     0.13200
C1309       C  0.82642446  0.55014394  0.97108020    -0.31000
C1310       C  0.82792481  0.94330201  0.53249567    -0.31300
N1311       N  0.82613595  0.92138809  0.99725546     0.13700
H1312       H  0.82579634  0.93650104  0.56227605     0.16300
C1313       C  0.83349067  0.93837951  0.96601249    -0.31300
H1314       H  0.83034981  0.93165514  0.93631077     0.16300
H1315       H  0.82657119  0.55915723  0.94222893     0.16300
H1316       H  0.92393342  0.51092145  0.56123801     0.16400
H1317       H  0.82458246  0.56106577  0.55898606     0.16300
C1318       C  0.85525830  0.99393003  0.70922423     0.30200
C1319       C  0.85652646  0.99339894  0.78855804     0.30200
C1320       C  0.88851778  0.99735422  0.72814566    -0.06000
C1321       C  0.83270946  0.52147299  0.72972031    -0.06800
C1322       C  0.84225008  0.96563363  0.72891046    -0.06600
C1323       C  0.88922133  0.99712995  0.76847478    -0.06000
C1324       C  0.83310466  0.52194832  0.77026350    -0.06800
C1325       C  0.84294874  0.96537920  0.76894427    -0.06700
C1326       C  0.91770039  0.50866365  0.78051014    -0.32000
N1327       N  0.93585950  0.51119023  0.74840844     0.14500
C1328       C  0.91702837  0.50736102  0.71694612    -0.32000
H1329       H  0.92554647  0.50768083  0.68757231     0.16400
C1330       C  0.82667604  0.55139012  0.78090371    -0.31000
N1331       N  0.82117342  0.56819844  0.74899438     0.13200
C1332       C  0.82643726  0.55051047  0.71799854    -0.31000
C1333       C  0.82925026  0.93888959  0.78082296    -0.31300
N1334       N  0.82007898  0.92311709  0.74915342     0.13700
H1335       H  0.82523959  0.93212283  0.81034505     0.16300
C1336       C  0.82795760  0.93932881  0.71732468    -0.31300
H1337       H  0.82339044  0.93265178  0.68788233     0.16300
H1338       H  0.82837886  0.55884945  0.68885867     0.16300
H1339       H  0.92686799  0.51012494  0.80960981     0.16400
H1340       H  0.82769612  0.56021968  0.80985251     0.16300
O1341       O  0.53352519  0.78260629  0.94604822    -0.71600
O1342       O  0.53414908  0.77718045  0.54916906    -0.71800
O1343       O  0.57887935  0.77899884  0.00079923    -0.71700
O1344       O  0.48799727  0.77500826  0.49543575    -0.71700
O1345       O  0.48811082  0.73036477  0.99227612    -0.71600
O1346       O  0.57637726  0.72189161  0.50347429    -0.71600
O1347       O  0.52969618  0.72872495  0.55508176    -0.71600
O1348       O  0.53584300  0.73390095  0.94165378    -0.71800
V1349       V  0.53324888  0.77805356  0.00021182     1.35200
V1350       V  0.53096425  0.72499370  0.50122647     1.35200
C1351       C  0.53507813  0.75929423  0.92552067     0.77700
C1352       C  0.53203474  0.75435352  0.57043273     0.77700
C1353       C  0.59427150  0.75448549  0.99987024     0.77600
C1354       C  0.47254378  0.75455721  0.99601350     0.77500
O1355       O  0.48688735  0.71532446  0.74930721    -0.71600
O1356       O  0.57802502  0.70796638  0.74942384    -0.71800
O1357       O  0.53259906  0.71214210  0.80317760    -0.71700
O1358       O  0.53222327  0.71047500  0.69514768    -0.71700
O1359       O  0.53567914  0.75924101  0.69357186    -0.71600
O1360       O  0.53737552  0.76082563  0.80226394    -0.71600
O1361       O  0.58178957  0.75671205  0.74728952    -0.71600
O1362       O  0.49135390  0.76404128  0.74874702    -0.71800
V1363       V  0.53250568  0.71241353  0.74918420     1.35200
V1364       V  0.53649881  0.75925171  0.74796302     1.35200
C1365       C  0.47380829  0.74103543  0.74936792     0.77700
C1366       C  0.59524336  0.73130475  0.74861044     0.77700
C1367       C  0.53512523  0.73661305  0.82101278     0.77600
C1368       C  0.53359198  0.73444619  0.67603907     0.77500
O1369       O  0.98304650  0.53623263  0.50575454    -0.71600
O1370       O  0.07933928  0.53041120  0.00428651    -0.71800
O1371       O  0.03299170  0.53688254  0.95126055    -0.71700
O1372       O  0.02994531  0.53091844  0.55807089    -0.71700
O1373       O  0.03715307  0.97240473  0.54740725    -0.71600
O1374       O  0.03031284  0.99204388  0.94129852    -0.71600
O1375       O  0.08151815  0.98018837  0.49285336    -0.71600
O1376       O  0.98488085  0.98775581  0.99482662    -0.71800
V1377       V  0.02866862  0.53567598  0.50432888     1.35200
V1378       V  0.03609838  0.97961756  0.49383701     1.35200
C1379       C  0.96798727  0.51198367  0.50047602     0.77700
C1380       C  0.08976456  0.51257302  0.49994119     0.77700
C1381       C  0.03126474  0.51465637  0.92896037     0.77600
C1382       C  0.02969552  0.50479122  0.57217122     0.77500
O1383       O  0.07691404  0.53276365  0.75850476    -0.71600
O1384       O  0.98568878  0.53517248  0.75263370    -0.71800
O1385       O  0.02894451  0.52752120  0.80863528    -0.71700
O1386       O  0.03370735  0.54059885  0.70178540    -0.71700
O1387       O  0.03512330  0.98494851  0.69174454    -0.71600
O1388       O  0.03275673  0.97737765  0.79969380    -0.71600
O1389       O  0.98854113  0.98072944  0.74422048    -0.71600
O1390       O  0.07931547  0.98141157  0.74712482    -0.71800
V1391       V  0.03130004  0.53312231  0.75517648     1.35200
V1392       V  0.03391331  0.98206713  0.74578499     1.35200
C1393       C  0.09172096  0.50822699  0.75357127     0.77700
C1394       C  0.97002563  0.51112879  0.74828745     0.77700
C1395       C  0.02897827  0.50119514  0.82211716     0.77600
C1396       C  0.03277822  0.51858624  0.67901932     0.77500
C1397       C  0.35472525  0.75058159  0.95982498     0.30200
C1398       C  0.35425102  0.75241923  0.53942119     0.30200
C1399       C  0.38788747  0.75052540  0.97880891    -0.06000
C1400       C  0.33850194  0.77814392  0.97877372    -0.06800
C1401       C  0.33774760  0.72451976  0.98069235    -0.06600
C1402       C  0.38721649  0.75253164  0.51939899    -0.06000
C1403       C  0.33793597  0.77968400  0.52012380    -0.06800
C1404       C  0.33735129  0.72596500  0.51991738    -0.06700
C1405       C  0.41905685  0.75325253  0.53023149    -0.32000
N1406       N  0.43844247  0.75413683  0.99686705     0.14500
C1407       C  0.41899339  0.75147939  0.96584961    -0.32000
H1408       H  0.42690854  0.75088505  0.93620312     0.16400
C1409       C  0.32494945  0.80655808  0.53207738    -0.31000
N1410       N  0.31613948  0.82105323  0.99807726     0.13200
C1411       C  0.32309608  0.80398994  0.96672156    -0.31000
C1412       C  0.32180649  0.70056188  0.53215524    -0.31300
N1413       N  0.31283494  0.68415682  0.00352347     0.13700
H1414       H  0.31893435  0.69341132  0.56171012     0.16300
C1415       C  0.32104072  0.69897619  0.97085198    -0.31300
H1416       H  0.31490525  0.69152928  0.94216273     0.16300
H1417       H  0.31777167  0.81028477  0.93733122     0.16300
H1418       H  0.42855742  0.75395669  0.55921462     0.16400
H1419       H  0.32427831  0.81498129  0.56124579     0.16300
C1420       C  0.35628108  0.75176929  0.71003666     0.30200
C1421       C  0.35685407  0.75054294  0.78942350     0.30200
C1422       C  0.38954001  0.74916389  0.72941151    -0.06000
C1423       C  0.34238237  0.77984363  0.73042988    -0.06800
C1424       C  0.33766787  0.72610961  0.72911896    -0.06600
C1425       C  0.38962813  0.74817746  0.76962317    -0.06000
C1426       C  0.34206010  0.77890121  0.77063664    -0.06800
C1427       C  0.33761742  0.72550315  0.76923068    -0.06700
C1428       C  0.42099927  0.74479603  0.78142857    -0.32000
N1429       N  0.43977458  0.74413859  0.74966116     0.14500
C1430       C  0.42117768  0.74744575  0.71794100    -0.32000
H1431       H  0.43037404  0.74872093  0.68891289     0.16400
C1432       C  0.32695132  0.80481667  0.78303209    -0.31000
N1433       N  0.31954680  0.82206870  0.75199523     0.13200
C1434       C  0.32910942  0.80711919  0.71981933    -0.31000
C1435       C  0.31934854  0.70113717  0.77986505    -0.31300
N1436       N  0.30925552  0.68652090  0.74766362     0.13700
H1437       H  0.31413401  0.69417918  0.80893119     0.16300
C1438       C  0.32021171  0.70184277  0.71649573    -0.31300
H1439       H  0.31590211  0.69588866  0.68675087     0.16300
H1440       H  0.32623921  0.81544413  0.69080009     0.16300
H1441       H  0.42956816  0.74297106  0.81077257     0.16400
H1442       H  0.32163654  0.81081287  0.81248948     0.16300
C1443       C  0.21265415  0.00507257  0.54107002     0.30200
C1444       C  0.20949332  0.00250075  0.96164880     0.30200
C1445       C  0.17974897  0.00486592  0.52069607    -0.06000
C1446       C  0.22528409  0.52994966  0.52226850    -0.06800
C1447       C  0.23024116  0.97889165  0.52162796    -0.06600
C1448       C  0.17644221  0.00355410  0.98080803    -0.06000
C1449       C  0.22899977  0.52813651  0.98316948    -0.06800
C1450       C  0.22515894  0.97478862  0.98056415    -0.06700
C1451       C  0.14526975  0.00643585  0.96816684    -0.32000
N1452       N  0.12602539  0.00836522  0.99940950     0.14500
C1453       C  0.14787148  0.00640123  0.53100272    -0.32000
H1454       H  0.13813013  0.00813416  0.55974655     0.16400
C1455       C  0.24549652  0.55364198  0.97277747    -0.31000
N1456       N  0.25294546  0.56940181  0.00507682     0.13200
C1457       C  0.24058157  0.55572776  0.53398163    -0.31000
C1458       C  0.24221155  0.94996376  0.96849830    -0.31300
N1459       N  0.25148354  0.93396614  0.99985937     0.13700
H1460       H  0.24843060  0.94422077  0.93919855     0.16300
C1461       C  0.24634883  0.95369955  0.53392993    -0.31300
H1462       H  0.24997043  0.94711222  0.56358936     0.16300
H1463       H  0.24290911  0.56366745  0.56325133     0.16300
H1464       H  0.13716563  0.00731758  0.93856149     0.16400
H1465       H  0.25136298  0.56059249  0.94384300     0.16300
C1466       C  0.21213409  0.00258274  0.71176845     0.30200
C1467       C  0.21142983  0.00367484  0.79121470     0.30200
C1468       C  0.22927546  0.97641595  0.73219877    -0.06000
C1469       C  0.22380974  0.52978470  0.73093394    -0.06800
C1470       C  0.17879141  0.00264289  0.73101444    -0.06600
C1471       C  0.22910309  0.97691175  0.77236866    -0.06000
C1472       C  0.22518003  0.52995728  0.77114780    -0.06800
C1473       C  0.17867010  0.00296235  0.77124369    -0.06700
C1474       C  0.24593035  0.95183190  0.78448349    -0.32000
N1475       N  0.25562399  0.93601114  0.75308583     0.14500
C1476       C  0.24572137  0.95099259  0.72103506    -0.32000
H1477       H  0.24962699  0.94365163  0.69170249     0.16400
C1478       C  0.24017849  0.55635041  0.78158320    -0.31000
N1479       N  0.24652382  0.57257527  0.74934861     0.13200
C1480       C  0.23643342  0.55657498  0.71834960    -0.31000
C1481       C  0.14725581  0.00471604  0.78307089    -0.31300
N1482       N  0.12585837  0.50703548  0.75385204     0.13700
H1483       H  0.13866317  0.00544806  0.81243564     0.16300
C1484       C  0.14717718  0.00487086  0.71947583    -0.31300
H1485       H  0.13811169  0.00647352  0.69035288     0.16300
H1486       H  0.23743679  0.56425926  0.68886938     0.16300
H1487       H  0.25122821  0.94563110  0.81391056     0.16400
H1488       H  0.24663436  0.56317257  0.81042617     0.16300
C1489       C  0.20407924  0.97644652  0.89612684    -0.13100
C1490       C  0.20806155  0.00309461  0.91745582     0.09000
C1491       C  0.20738002  0.52908584  0.89769373    -0.13100
C1492       C  0.20628762  0.52938219  0.85729207    -0.13100
C1493       C  0.20907493  0.00375877  0.83540060     0.09000
C1494       C  0.20468272  0.97676679  0.85581034    -0.13100
H1495       H  0.20007082  0.95525155  0.91045294     0.13000
H1496       H  0.20431816  0.55013118  0.91276168     0.13000
H1497       H  0.20229023  0.55062800  0.84304144     0.13000
H1498       H  0.20128827  0.95578319  0.84068047     0.13000
C1499       C  0.18939089  0.98738546  0.60564197    -0.13100
C1500       C  0.21313222  0.00326155  0.58531678     0.09000
C1501       C  0.23495932  0.51156269  0.60676646    -0.13100
C1502       C  0.23538426  0.51076224  0.64709004    -0.13100
C1503       C  0.21334210  0.00118084  0.66749689     0.09000
C1504       C  0.18946331  0.98640477  0.64599761    -0.13100
H1505       H  0.17105746  0.97498149  0.59050958     0.13000
H1506       H  0.25643191  0.51867134  0.59205299     0.13000
H1507       H  0.25690969  0.51784773  0.66195932     0.13000
H1508       H  0.17109530  0.97344843  0.66017294     0.13000
C1509       C  0.29435933  0.63883768  0.71552435    -0.13100
C1510       C  0.29185741  0.65851118  0.74708064     0.09000
C1511       C  0.27320658  0.64971636  0.77881037    -0.13100
C1512       C  0.25818144  0.62171713  0.77941044    -0.13100
C1513       C  0.26126666  0.60182781  0.74822151     0.09000
C1514       C  0.27920034  0.61087666  0.71607055    -0.13100
H1515       H  0.30883728  0.64457006  0.69084063     0.13000
H1516       H  0.27007907  0.66446825  0.80326354     0.13000
H1517       H  0.24393659  0.61574173  0.80422166     0.13000
H1518       H  0.28233148  0.59598363  0.69172933     0.13000
C1519       C  0.31025609  0.87262810  0.72432839    -0.13100
C1520       C  0.30403451  0.85115143  0.75299168     0.09000
C1521       C  0.28224169  0.85850641  0.78245259    -0.13100
C1522       C  0.26673327  0.88647597  0.78282500    -0.13100
C1523       C  0.27256073  0.90768135  0.75369349     0.09000
C1524       C  0.29465568  0.90051069  0.72462282    -0.13100
H1525       H  0.32739133  0.86795309  0.70172618     0.13000
H1526       H  0.27659849  0.84239767  0.80471179     0.13000
H1527       H  0.24953925  0.89122924  0.80536199     0.13000
H1528       H  0.30000442  0.91659582  0.70222003     0.13000
C1529       C  0.27561569  0.64796316  0.03334584    -0.13100
C1530       C  0.29819906  0.65500644  0.00487497     0.09000
C1531       C  0.30657054  0.63311106  0.97756261    -0.13100
C1532       C  0.29215894  0.60489443  0.97813061    -0.13100
C1533       C  0.26895527  0.59799008  0.00592921     0.09000
C1534       C  0.26103236  0.61969289  0.03382139    -0.13100
H1535       H  0.27024214  0.66422879  0.55392699     0.13000
H1536       H  0.32448717  0.63780937  0.95591141     0.13000
H1537       H  0.29922224  0.58839813  0.95684158     0.13000
H1538       H  0.24300688  0.61506321  0.05535225     0.13000
C1539       C  0.27681925  0.85657500  0.97024631    -0.13100
C1540       C  0.30059794  0.84998501  0.99771494     0.09000
C1541       C  0.30852140  0.87183717  0.02536118    -0.13100
C1542       C  0.29253095  0.89948924  0.02599683    -0.13100
C1543       C  0.26850836  0.90586172  0.99883956     0.09000
C1544       C  0.26097270  0.88427950  0.97076594    -0.13100
H1545       H  0.26997002  0.84003563  0.94894059     0.13000
H1546       H  0.32717103  0.86755597  0.04640082     0.13000
H1547       H  0.29902951  0.91600629  0.04750019     0.13000
H1548       H  0.24227374  0.88863581  0.94978963     0.13000
C1549       C  0.35789424  0.72296140  0.89482533    -0.13100
C1550       C  0.35650142  0.75010325  0.91565399     0.09000
C1551       C  0.36264872  0.77668049  0.89500416    -0.13100
C1552       C  0.36387849  0.77663650  0.85471799    -0.13100
C1553       C  0.35864450  0.75007562  0.83363367     0.09000
C1554       C  0.35892828  0.72295009  0.85446617    -0.13100
H1555       H  0.35931517  0.70162657  0.90948059     0.13000
H1556       H  0.36707773  0.79756688  0.90994581     0.13000
H1557       H  0.36931211  0.79747905  0.84022201     0.13000
H1558       H  0.36072265  0.70162668  0.83977704     0.13000
C1559       C  0.32821067  0.76320874  0.60508189    -0.13100
C1560       C  0.35379787  0.75098563  0.58365071     0.09000
C1561       C  0.37665966  0.73388548  0.60402346    -0.13100
C1562       C  0.37710041  0.73364040  0.64438156    -0.13100
C1563       C  0.35498667  0.75083761  0.66579546     0.09000
C1564       C  0.32888158  0.76327662  0.64544535    -0.13100
H1565       H  0.30722474  0.77225568  0.59085392     0.13000
H1566       H  0.39397928  0.72020191  0.58884625     0.13000
H1567       H  0.39440529  0.71932948  0.65861428     0.13000
H1568       H  0.30852315  0.77255283  0.66061196     0.13000
C1569       C  0.02985422  0.51941360  0.88770418    -0.16200
C1570       C  0.02874032  0.49620710  0.86338303    -0.31400
H1571       H  0.03032566  0.04423318  0.87326009     0.12800
H1572       H  0.02852676  0.47319126  0.87386460     0.13400
C1573       C  0.03303366  0.52346840  0.63768335    -0.16200
C1574       C  0.03048182  0.50024663  0.61349723    -0.31400
H1575       H  0.03473773  0.54637996  0.62704557     0.12800
H1576       H  0.03718096  0.96743584  0.62264013     0.13400
C1577       C  0.53575200  0.76137503  0.88368952    -0.16200
C1578       C  0.53530418  0.73621945  0.86271144    -0.31400
H1579       H  0.53608643  0.78337980  0.87012755     0.12800
H1580       H  0.53450238  0.71430128  0.87651242     0.13400
C1581       C  0.53268664  0.75740064  0.61220123    -0.16200
C1582       C  0.53259365  0.73284524  0.63430991    -0.31400
H1583       H  0.53371568  0.77973183  0.62480632     0.12800
H1584       H  0.53165860  0.71058233  0.62146705     0.13400
C1585       C  0.82860352  0.50778268  0.89573090    -0.13100
C1586       C  0.85445149  0.99345460  0.91500471     0.09000
C1587       C  0.87953956  0.97901968  0.89499145    -0.13100
C1588       C  0.88014904  0.97849196  0.85452858    -0.13100
C1589       C  0.85561585  0.99230416  0.83281724     0.09000
C1590       C  0.82812368  0.50782523  0.85537081    -0.13100
H1591       H  0.80756949  0.51594912  0.91062445     0.13000
H1592       H  0.89877733  0.96808250  0.91063563     0.13000
H1593       H  0.89975127  0.96704395  0.84035254     0.13000
H1594       H  0.80687044  0.51624311  0.84102526     0.13000
C1595       C  0.87886281  0.97818015  0.60379798    -0.13100
C1596       C  0.85643456  0.99543661  0.58279547     0.09000
C1597       C  0.82527077  0.50895984  0.60531591    -0.13100
C1598       C  0.82533242  0.50771298  0.64558721    -0.13100
C1599       C  0.85442412  0.99299746  0.66494209     0.09000
C1600       C  0.87783617  0.97694586  0.64415453    -0.13100
H1601       H  0.89709109  0.96525902  0.58907494     0.13000
H1602       H  0.80441785  0.51831680  0.59108929     0.13000
H1603       H  0.80446090  0.51617922  0.66054095     0.13000
H1604       H  0.89561130  0.96352090  0.65913099     0.13000
C1605       C  0.77974241  0.63819661  0.71527675    -0.13100
C1606       C  0.78377165  0.65763109  0.74680071     0.09000
C1607       C  0.80265368  0.64789431  0.77806841    -0.13100
C1608       C  0.81600994  0.61893759  0.77842733    -0.13100
C1609       C  0.81076291  0.59914895  0.74748800     0.09000
C1610       C  0.79303285  0.60944426  0.71561988    -0.13100
H1611       H  0.76490805  0.64450492  0.69098214     0.13000
H1612       H  0.80664535  0.66247133  0.80252254     0.13000
H1613       H  0.83001851  0.61197025  0.80313402     0.13000
H1614       H  0.78799377  0.59474960  0.69156981     0.13000
C1615       C  0.76391289  0.86144029  0.72059054    -0.13100
C1616       C  0.76892257  0.84025243  0.75000014     0.09000
C1617       C  0.79133941  0.84663946  0.77912188    -0.13100
C1618       C  0.80832629  0.87373675  0.77876526    -0.13100
C1619       C  0.80317384  0.89493149  0.74931141     0.09000
C1620       C  0.78080363  0.88842676  0.72025307    -0.13100
H1621       H  0.74629742  0.85742174  0.69826197     0.13000
H1622       H  0.79591643  0.83062999  0.80195456     0.13000
H1623       H  0.82567311  0.87802964  0.80130544     0.13000
H1624       H  0.77580481  0.90452654  0.69765236     0.13000
C1625       C  0.78341934  0.64227842  0.46213690    -0.13100
C1626       C  0.77765824  0.65408618  0.00544065     0.09000
C1627       C  0.79463662  0.64404435  0.97289914    -0.13100
C1628       C  0.80950342  0.61582455  0.97263898    -0.13100
C1629       C  0.80791381  0.59682872  0.00495147     0.09000
C1630       C  0.79691701  0.61349900  0.46240366    -0.13100
H1631       H  0.77368082  0.65046951  0.43526476     0.13000
H1632       H  0.79604132  0.65766011  0.94721251     0.13000
H1633       H  0.82180995  0.60888355  0.94676987     0.13000
H1634       H  0.79683155  0.60101616  0.43574213     0.13000
C1635       C  0.77544112  0.85639228  0.96551795    -0.13100
C1636       C  0.78017088  0.83581600  0.99567631     0.09000
C1637       C  0.80141622  0.84338746  0.02564925    -0.13100
C1638       C  0.81687601  0.87125683  0.02593642    -0.13100
C1639       C  0.81148732  0.89209727  0.99622311     0.09000
C1640       C  0.79088477  0.88418070  0.96578957    -0.13100
H1641       H  0.75882852  0.85149951  0.94236398     0.13000
H1642       H  0.75515270  0.85615988  0.55925989     0.13000
H1643       H  0.83302158  0.87654641  0.04942542     0.13000
H1644       H  0.78582893  0.89987433  0.94278004     0.13000
C1645       C  0.70933280  0.71685719  0.89513728    -0.13100
C1646       C  0.70931721  0.74394018  0.91630012     0.09000
C1647       C  0.70436538  0.77068205  0.89553291    -0.13100
C1648       C  0.70419042  0.77077450  0.85516477    -0.13100
C1649       C  0.70923689  0.74412493  0.83395070     0.09000
C1650       C  0.70939388  0.71696835  0.85467666    -0.13100
H1651       H  0.70837177  0.69540967  0.90955314     0.13000
H1652       H  0.70067273  0.79171108  0.91057371     0.08600
H1653       H  0.69957721  0.79186286  0.84076157     0.13000
H1654       H  0.70928408  0.69568966  0.83962797     0.13000
C1655       C  0.70343578  0.77304865  0.60524412    -0.13100
C1656       C  0.70855821  0.74662820  0.58383068     0.09000
C1657       C  0.70843196  0.71923165  0.60417831    -0.13100
C1658       C  0.70867963  0.71874790  0.64461759    -0.13100
C1659       C  0.70875374  0.74564210  0.66599026     0.09000
C1660       C  0.70343615  0.77255555  0.64553321    -0.13100
H1661       H  0.69900155  0.79423615  0.59092951     0.13000
H1662       H  0.70782961  0.69805957  0.58896007     0.13000
H1663       H  0.70867359  0.69725174  0.65913555     0.13000
H1664       H  0.69860267  0.79337813  0.66046693     0.13000
loop_ 
_geom_bond_atom_site_label_1 
_geom_bond_atom_site_label_2 
_geom_bond_distance 
_geom_bond_site_symmetry_2 
_ccdc_geom_bond_type 
C1            C3   1.530       .  S
C1            C5   1.546       .  S
C1            C4   1.545       .  S
C1          C398   1.538       .  S
C2            C6   1.530       .  S
C2            C8   1.545       .  S
C2            C7   1.547       .  S
C2          C408   1.539       .  S
C3           C11   1.374       .  A
C3          C422   1.394       .  A
C4           C15   1.382       .  A
C4          C423   1.397       .  A
C5           C19   1.379       .  A
C5          C424   1.402       .  A
C6            C9   1.374       .  A
C6          C419   1.394   1_554  A
C7           C13   1.383       .  A
C7          C420   1.399   1_554  A
C8           C16   1.378       .  A
C8          C421   1.401   1_554  A
C9           N10   1.354   1_554  A
C9           H22   1.083       .  S
N10         C427   1.354       .  A
N10         C521   1.420   1_556  S
C11         N426   1.355       .  A
C11          H12   1.083       .  S
C13         N430   1.360   1_554  A
C13          H23   1.081       .  S
N14          C15   1.360       .  A
N14         C429   1.357       .  A
N14         C378   1.441       .  S
C15          H21   1.081       .  S
C16         N433   1.359   1_554  A
C16          H18   1.081       .  S
N17          C19   1.359       .  A
N17         C432   1.356       .  A
N17         C388   1.436       .  S
C19          H20   1.080       .  S
C24          C26   1.533       .  S
C24          C28   1.545       .  S
C24          C27   1.548       .  S
C24         C411   1.543       .  S
C25          C29   1.532       .  S
C25          C31   1.542       .  S
C25          C30   1.546       .  S
C25         C401   1.542       .  S
C26          C34   1.377       .  A
C26          C29   1.395       .  A
C27          C38   1.382       .  A
C27          C30   1.401       .  A
C28          C42   1.380       .  A
C28          C31   1.400       .  A
C29          C32   1.375       .  A
C30          C36   1.383       .  A
C31          C39   1.376       .  A
C32          N33   1.356       .  A
C32          H45   1.083       .  S
N33          C34   1.356       .  A
N33         C118   1.424       .  S
C34          H35   1.082       .  S
C36          N37   1.358       .  A
C36          H46   1.081       .  S
N37          C38   1.358       .  A
N37         C358   1.447       .  S
C38          H44   1.079       .  S
C39          N40   1.357       .  A
C39          H41   1.081       .  S
N40          C42   1.359       .  A
N40         C368   1.439       .  S
C42          H43   1.081       .  S
C47          C50   1.544   1_565  S
C47         C881   1.545       .  S
C47         C883   1.531       .  S
C47        C1170   1.538       .  S
C48          C53   1.547   1_565  S
C48         C884   1.546   1_565  S
C48         C886   1.534       .  S
C48        C1180   1.539       .  S
C49         C879   1.541       .  S
C49         C889   1.377       .  A
C49         C468   1.400       .  A
C50          C61   1.380       .  A
C50         C469   1.399       .  A
C51         C879   1.527       .  S
C51          C65   1.373       .  A
C51         C470   1.387       .  A
C52         C880   1.543       .  S
C52         C465   1.403   1_554  A
C52         C887   1.379       .  A
C53          C59   1.385       .  A
C53         C466   1.411   1_554  A
C54         C880   1.531       .  S
C54          C62   1.374       .  A
C54         C467   1.390   1_554  A
C55         C884   1.381       .  A
C55         N472   1.358   1_554  A
C55          H68   1.082       .  S
N56          C57   1.352       .  A
N56         C471   1.351       .  A
N56         C547   1.419   1_565  S
C57         C881   1.377       .  A
C57          H58   1.081       .  S
C59         N476   1.353   1_554  A
C59          H69   1.081       .  S
N60          C61   1.359       .  A
N60         C475   1.359       .  A
N60         C381   1.442       .  S
C61          H67   1.081       .  S
C62         N479   1.361   1_554  A
C62          H64   1.082       .  S
N63          C65   1.359       .  A
N63         C478   1.359       .  A
N63         C391   1.436       .  S
C65          H66   1.083       .  S
C70          C72   1.540       .  S
C70          C74   1.529       .  S
C70         C351   1.538       .  S
C70         C905   1.547       .  S
C71          C75   1.546       .  S
C71          C77   1.533       .  S
C71         C341   1.540       .  S
C71         C908   1.545       .  S
C72          C75   1.401       .  A
C72         C912   1.376       .  A
C73         C902   1.551   1_545  S
C73          C84   1.385       .  A
C73          C76   1.402       .  A
C74          C88   1.374       .  A
C74          C77   1.390       .  A
C75         C910   1.381       .  A
C76         C903   1.543   1_545  S
C76          C82   1.380       .  A
C77          C85   1.375       .  A
C78         C907   1.378   1_545  A
C78          N79   1.354       .  A
C78          H91   1.082       .  S
N79          C80   1.354       .  A
N79         C146   1.426       .  S
C80         C904   1.380   1_545  A
C80          H81   1.082       .  S
C82          N83   1.356       .  A
C82          H92   1.081       .  S
N83          C84   1.360       .  A
N83         C361   1.447       .  S
C84          H90   1.080       .  S
C85          N86   1.361       .  A
C85          H87   1.082       .  S
N86          C88   1.359       .  A
N86         C371   1.439       .  S
C88          H89   1.082       .  S
O93         V101   1.881       .  S
O93         C103   1.264       .  A
O94         V517   1.876       .  S
O94         C104   1.263       .  A
O95         V101   1.898       .  S
O95         C105   1.263       .  A
O96         V517   1.896       .  S
O96         C522   1.262   1_554  A
O97         V518   1.894       .  S
O97         C106   1.262       .  A
O98         V102   1.893       .  S
O98         C521   1.261   1_556  A
O99         V102   1.894   1_554  S
O99         C104   1.260       .  A
O100        V518   1.884       .  S
O100        C103   1.258       .  A
V101        O510   1.893       .  S
V101        O512   1.899       .  S
V101        V518   2.092       .  T
V102        O513   1.894       .  S
V102        O516   1.876       .  S
V102        V517   2.091   1_556  T
C103        C329   1.454       .  S
C104        C333   1.461       .  S
C105        N426   1.421       .  S
C105        O514   1.262       .  A
C106        N158   1.422       .  S
C106        O512   1.263       .  A
O107        V115   1.890       .  S
O107        C117   1.261       .  A
O108        V115   1.890       .  S
O108        C118   1.260       .  A
O109        V115   1.891       .  S
O109        C119   1.265       .  A
O110        V115   1.898       .  S
O110        C120   1.264       .  A
O111        V116   1.871       .  S
O111        C120   1.256       .  A
O112        V116   1.873       .  S
O112        C119   1.256       .  A
O113        V116   1.907       .  S
O113        C118   1.265       .  A
O114        V116   1.906       .  S
O114        C117   1.265       .  A
V115        V116   2.092       .  T
C117        N181   1.424       .  S
C119        C330   1.449       .  S
C120        C334   1.450       .  S
O121        V129   1.907   1_655  S
O121        C131   1.264   1_554  A
O122        V545   1.894       .  S
O122        C548   1.262       .  A
O123        V545   1.882       .  S
O123        C133   1.258       .  A
O124        V129   1.880       .  S
O124        C134   1.262       .  A
O125        V130   1.890   1_554  S
O125        C966   1.260       .  A
O126        V546   1.871       .  S
O126        C965   1.260       .  A
O127        V130   1.896       .  S
O127        C964   1.262       .  A
O128        V546   1.894   1_655  S
O128       C1379   1.262       .  A
V129        O538   1.906       .  S
V129        O539   1.890   1_554  S
V129        V962   2.092   1_544  T
V130        O542   1.880       .  S
V130        O544   1.896   1_455  S
V130        V961   2.091   1_556  T
C131        N472   1.426       .  S
C131       O1376   1.262   1_545  A
C132       N1452   1.427       .  S
C132        O538   1.265   1_556  A
C132        O959   1.262   1_545  A
C133        O958   1.262   1_545  A
C133        C321   1.448       .  S
C134        O957   1.258   1_545  A
C134        C326   1.447   1_545  S
O135        V143   1.902       .  S
O135        C145   1.263       .  A
O136        V143   1.902   1_655  S
O136        C146   1.263       .  A
O137        V143   1.875       .  S
O137        C147   1.262   1_545  A
O138        V143   1.887       .  S
O138        C148   1.259       .  A
O139        V144   1.881       .  S
O139        C980   1.262       .  A
O140        V144   1.882       .  S
O140        C979   1.259       .  A
O141        V144   1.895   1_655  S
O141        C978   1.263       .  A
O142        V144   1.894       .  S
O142        C977   1.262       .  A
V143        V976   2.092   1_545  T
V144        V975   2.092       .  T
C145        N234   1.426       .  S
C145        O974   1.263   1_545  A
C146        O973   1.263   1_545  A
C147        O972   1.259       .  A
C147        C322   1.450       .  S
C148        O971   1.261   1_545  A
C148        C325   1.451       .  S
C149        C151   1.533       .  S
C149        C153   1.543       .  S
C149        C152   1.546       .  S
C149        C302   1.540       .  S
C150        C154   1.541       .  S
C150        C156   1.534       .  S
C150        C155   1.540       .  S
C150        C312   1.538       .  S
C151        C159   1.376       .  A
C151        C570   1.398       .  A
C152        C163   1.378       .  A
C152        C571   1.400       .  A
C153        C167   1.377       .  A
C153        C572   1.391       .  A
C154        C157   1.378       .  A
C154        C567   1.399   1_554  A
C155        C161   1.377       .  A
C155        C568   1.397   1_554  A
C156        C164   1.375       .  A
C156        C569   1.398   1_554  A
C157        N574   1.354   1_554  A
C157        H170   1.081       .  S
N158        C159   1.354       .  A
N158        C573   1.354       .  A
C159        H160   1.082       .  S
C161        N578   1.357       .  A
C161        H171   1.081       .  S
N162        C163   1.359       .  A
N162        C577   1.356       .  A
N162        C292   1.438       .  S
C163        H169   1.081       .  S
C164        N581   1.358       .  A
C164        H166   1.082       .  S
N165        C167   1.360       .  A
N165        C580   1.360       .  A
N165        C282   1.444       .  S
C167        H168   1.079       .  S
C172        C174   1.538       .  S
C172        C176   1.534       .  S
C172        C175   1.544       .  S
C172        C315   1.538       .  S
C173        C177   1.535       .  S
C173        C179   1.546       .  S
C173        C178   1.541       .  S
C173        C305   1.540       .  S
C174        C182   1.377       .  A
C174        C177   1.396       .  A
C175        C186   1.378       .  A
C175        C178   1.399       .  A
C176        C190   1.376       .  A
C176        C179   1.395       .  A
C177        C180   1.378       .  A
C178        C184   1.375       .  A
C179        C187   1.379       .  A
C180        N181   1.356       .  A
C180        H193   1.083       .  S
N181        C182   1.353       .  A
C182        H183   1.082       .  S
C184        N185   1.357       .  A
C184        H194   1.081       .  S
N185        C186   1.358       .  A
N185        C272   1.438       .  S
C186        H192   1.081       .  S
C187        N188   1.363       .  A
C187        H189   1.080       .  S
N188        C190   1.361       .  A
N188        C262   1.448       .  S
C190        H191   1.081       .  S
C195        C197   1.542       .  S
C195        C199   1.536       .  S
C195        C252   1.537       .  S
C195       C1030   1.542       .  S
C196        C200   1.534       .  S
C196        C202   1.541       .  S
C196        C242   1.539       .  S
C196       C1033   1.545       .  S
C197        C205   1.379       .  A
C197        C616   1.397   1_554  A
C198       C1027   1.544       .  S
C198        C209   1.378       .  A
C198        C617   1.398   1_554  A
C199        C213   1.378       .  A
C199        C618   1.396   1_554  A
C200        C203   1.375       .  A
C200        C613   1.398       .  A
C201       C1028   1.547       .  S
C201        C207   1.378       .  A
C201        C614   1.401       .  A
C202        C210   1.377       .  A
C202        C615   1.394       .  A
C203        N204   1.355       .  A
C203        H216   1.083       .  S
N204        C621   1.355       .  A
N204       C1380   1.424       .  S
C205        N620   1.353   1_554  A
C205        H206   1.081       .  S
C207        N208   1.360       .  A
C207        H217   1.081       .  S
N208        C625   1.358       .  A
N208        C285   1.441       .  S
C209        N624   1.358       .  A
C209        H215   1.081       .  S
C210        N211   1.360       .  A
C210        H212   1.080       .  S
N211        C629   1.359       .  A
N211        C295   1.440       .  S
C213        N627   1.359       .  A
C213        H214   1.082       .  S
C218        C220   1.529       .  S
C218        C222   1.542       .  S
C218        C255   1.536       .  S
C218       C1053   1.541       .  S
C219        C223   1.544       .  S
C219        C225   1.534       .  S
C219        C245   1.539       .  S
C219       C1056   1.547       .  S
C220        C228   1.371       .  A
C220        C223   1.394       .  A
C221       C1050   1.545       .  S
C221        C232   1.381       .  A
C221        C224   1.396       .  A
C222        C236   1.379       .  A
C222        C225   1.399       .  A
C223        C226   1.380       .  A
C224       C1051   1.546       .  S
C224        C230   1.378       .  A
C225        C233   1.376       .  A
C226        N227   1.361       .  A
C226        H239   1.080       .  S
N227        C228   1.358       .  A
N227        C275   1.441       .  S
C228        H229   1.082       .  S
C230        N231   1.361       .  A
C230        H240   1.078       .  S
N231        C232   1.362       .  A
N231        C265   1.450       .  S
C232        H238   1.079       .  S
C233       N1066   1.354       .  A
C233        H235   1.082       .  S
N234       C1065   1.356       .  A
N234       C1068   1.354       .  A
C236       N1066   1.354       .  A
C236        H237   1.082       .  S
C241        C242   1.408       .  A
C241        C246   1.402       .  A
C241        H247   1.080       .  S
C242       C1075   1.408       .  A
C243        C244   1.404       .  A
C243       C1074   1.409       .  A
C243        H248   1.080       .  S
C244       C1077   1.409       .  A
C244        H249   1.080       .  S
C245        C246   1.408       .  A
C245       C1076   1.409       .  A
C246        H250   1.080       .  S
C251        C252   1.409       .  A
C251        C256   1.402       .  A
C251        H257   1.079       .  S
C252       C1085   1.407       .  A
C253        C254   1.402       .  A
C253       C1084   1.409   1_545  A
C253        H258   1.081       .  S
C254       C1087   1.408   1_545  A
C254        H259   1.081       .  S
C255        C256   1.407       .  A
C255       C1086   1.409       .  A
C256        H260   1.080       .  S
C261        C262   1.408       .  A
C261        C266   1.401       .  A
C261        H267   1.081       .  S
C262        C263   1.405       .  A
C263        C264   1.395       .  A
C263        H268   1.081       .  S
C264        C265   1.408       .  A
C264        H269   1.079       .  S
C265        C266   1.409       .  A
C266        H270   1.081       .  S
C271        C272   1.403       .  A
C271        C276   1.395       .  A
C271        H277   1.082       .  S
C272        C273   1.405       .  A
C273        C274   1.395       .  A
C273        H278   1.082       .  S
C274        C275   1.405       .  A
C274        H279   1.082       .  S
C275        C276   1.407       .  A
C276        H280   1.081       .  S
C281        C282   1.407       .  A
C281        C286   1.397       .  A
C281        H703   1.081       .  S
C282        C283   1.407       .  A
C283        C284   1.394       .  A
C283        H288   1.081       .  S
C284        C285   1.404       .  A
C284        H289   1.082       .  S
C285        C286   1.406       .  A
C286        H290   1.082       .  S
H287        C697   1.082       .  S
C291        C292   1.403       .  A
C291        C296   1.395       .  A
C291        H297   1.082       .  S
C292        C293   1.405       .  A
C293        C294   1.396       .  A
C293        H298   1.082       .  S
C294        C295   1.406       .  A
C294        H299   1.082       .  S
C295        C296   1.406       .  A
C296        H300   1.082       .  S
C301        C302   1.409       .  A
C301        C306   1.402       .  A
C301        H307   1.080       .  S
C302        C303   1.408       .  A
C303        C304   1.405       .  A
C303        H308   1.080       .  S
C304        C305   1.411       .  A
C304        H309   1.081       .  S
C305        C306   1.407       .  A
C306        H310   1.080       .  S
C311        C312   1.409       .  A
C311        C316   1.402       .  A
C311        H317   1.081       .  S
C312        C313   1.408       .  A
C313        C314   1.403       .  A
C313        H318   1.080       .  S
C314        C315   1.409       .  A
C314        H319   1.081       .  S
C315        C316   1.407       .  A
C316        H320   1.080       .  S
C321        C322   1.335   1_545  D
C321       H1155   1.087       .  S
C322        H324   1.087       .  S
H323       C1153   1.087       .  S
C325        C326   1.335   1_545  D
C325        H327   1.087       .  S
C326       H1160   1.087       .  S
H328       C1158   1.087       .  S
C329        C330   1.333       .  D
C329        H331   1.087       .  S
C330        H332   1.087       .  S
C333        C334   1.335       .  D
C333        H335   1.087       .  S
C334        H336   1.087       .  S
C337        C342   1.402       .  A
C337       C1170   1.408   1_545  A
C337        H343   1.081       .  S
C338        C879   1.538       .  S
C338        C339   1.409       .  A
C338       C1169   1.407       .  A
C339        C340   1.406       .  A
C339        H344   1.081       .  S
C340        C341   1.408       .  A
C340        H345   1.082       .  S
C341       C1174   1.409       .  A
C342       C1173   1.409   1_545  A
C342        H346   1.081       .  S
C347        C348   1.409       .  A
C347        C352   1.407       .  A
C347        H353   1.081       .  S
C348        C880   1.539       .  S
C348       C1181   1.409       .  A
C349        C350   1.401       .  A
C349       C1180   1.410   1_545  A
C349        H354   1.080       .  S
C350       C1183   1.407   1_545  A
C350        H355   1.080       .  S
C351        C352   1.410       .  A
C351       C1182   1.407       .  A
C352        H356   1.082       .  S
C357        C358   1.408       .  A
C357        C362   1.399       .  A
C357        H363   1.081       .  S
C358        C359   1.407       .  A
C359        C360   1.398       .  A
C359        H364   1.082       .  S
C360        C361   1.407       .  A
C360        H365   1.082       .  S
C361        C362   1.406       .  A
C362        H366   1.081       .  S
C367        C368   1.406       .  A
C367        C372   1.395       .  A
C367        H373   1.082       .  S
C368        C369   1.404       .  A
C369        C370   1.399       .  A
C369        H374   1.082       .  S
C370        C371   1.406       .  A
C370        H375   1.082       .  S
C371        C372   1.403       .  A
C372        H376   1.082       .  S
C377        C382   1.402       .  A
C377        C794   1.406   1_554  A
C377        H383   1.082       .  S
C378        C379   1.405       .  A
C378        C793   1.406       .  A
C379        C380   1.390       .  A
C379        H384   1.081       .  S
C380        C381   1.403       .  A
C380        H385   1.082       .  S
C381        C798   1.408       .  A
C382        C797   1.407   1_554  A
C382        H386   1.082       .  S
C387        C388   1.403       .  A
C387        C392   1.396       .  A
C387        H393   1.083       .  S
C388        C389   1.405       .  A
C389        C390   1.394       .  A
C389        H810   1.082       .  S
C390        C391   1.404       .  A
C390        H395   1.083       .  S
C391        C392   1.405       .  A
C392        H396   1.082       .  S
H394        C805   1.082       .  S
C397        C398   1.408       .  A
C397        C402   1.401       .  A
C397        H403   1.081       .  S
C398        C399   1.409       .  A
C399        C400   1.406       .  A
C399        H404   1.080       .  S
C400        C401   1.410       .  A
C400        H405   1.081       .  S
C401        C402   1.408       .  A
C402        H406   1.080       .  S
C407        C408   1.410       .  A
C407        C412   1.406       .  A
C407        H413   1.080       .  S
C408        C409   1.407       .  A
C409        C410   1.402       .  A
C409        H414   1.081       .  S
C410        C411   1.409       .  A
C410        H415   1.079       .  S
C411        C412   1.408       .  A
C412        H416   1.082       .  S
C417        C419   1.528       .  S
C417        C421   1.542       .  S
C417        C420   1.540       .  S
C417        C814   1.538       .  S
C418        C422   1.529       .  S
C418        C424   1.540       .  S
C418        C423   1.539       .  S
C418        C824   1.538       .  S
C419        C427   1.373       .  A
C420        C431   1.374       .  A
C421        C435   1.376       .  A
C422        C425   1.375       .  A
C423        C429   1.373       .  A
C424        C432   1.374       .  A
C425        N426   1.355       .  A
C425        H438   1.083       .  S
C427        H428   1.083       .  S
C429        H439   1.080       .  S
N430        C431   1.356       .  A
N430        C794   1.440       .  S
C431        H437   1.081       .  S
C432        H434   1.082       .  S
N433        C435   1.357       .  A
N433        C804   1.440       .  S
C435        H436   1.082       .  S
C440        C442   1.533       .  S
C440        C444   1.547       .  S
C440        C443   1.549       .  S
C440        C827   1.536       .  S
C441        C445   1.529       .  S
C441        C447   1.542       .  S
C441        C446   1.542       .  S
C441        C817   1.536       .  S
C442        C450   1.378       .  A
C442        C445   1.392       .  A
C443        C454   1.382       .  A
C443        C446   1.400       .  A
C444        C458   1.383       .  A
C444        C447   1.396       .  A
C445        C448   1.374       .  A
C446        C452   1.375       .  A
C447        C455   1.379       .  A
C448        N449   1.355       .  A
C448        H461   1.083       .  S
N449        C450   1.357       .  A
N449        C534   1.424       .  S
C450        H451   1.083       .  S
C452        N453   1.360       .  A
C452        H462   1.081       .  S
N453        C454   1.362       .  A
N453        C774   1.445       .  S
C454        H460   1.081       .  S
C455        N456   1.359       .  A
C455        H457   1.081       .  S
N456        C458   1.360       .  A
N456        C784   1.447       .  S
C458        H459   1.080       .  S
C463       C1297   1.539   1_565  S
C463       C1299   1.527       .  S
C463        C466   1.544   1_565  S
C463       C1586   1.539       .  S
C464       C1300   1.538       .  S
C464       C1302   1.526       .  S
C464        C469   1.541   1_565  S
C464       C1596   1.539       .  S
C465       C1295   1.545       .  S
C465       C1305   1.378       .  A
C466        C477   1.380       .  A
C467       C1295   1.531       .  S
C467        C481   1.374       .  A
C468       C1296   1.540       .  S
C468       C1303   1.377       .  A
C469        C475   1.374       .  A
C470       C1296   1.527       .  S
C470        C478   1.373       .  A
C471       C1300   1.375       .  A
C471        H484   1.082   1_565  S
N472        C473   1.354       .  A
C473       C1297   1.375       .  A
C473        H474   1.082       .  S
C475        H485   1.081       .  S
N476        C477   1.353       .  A
N476        C797   1.440       .  S
C477        H483   1.082       .  S
C478        H480   1.082       .  S
N479        C481   1.360       .  A
N479        C807   1.440       .  S
C481        H482   1.082       .  S
C486        C488   1.541       .  S
C486        C490   1.531       .  S
C486       C1321   1.543       .  S
C486        C767   1.541       .  S
C487        C491   1.542       .  S
C487        C493   1.537       .  S
C487       C1324   1.547       .  S
C487        C757   1.542       .  S
C488       C1328   1.378       .  A
C488        C491   1.401       .  A
C489       C1318   1.546   1_545  S
C489        C500   1.385       .  A
C489        C492   1.405       .  A
C490        C504   1.376       .  A
C490        C493   1.389       .  A
C491       C1326   1.377       .  A
C492       C1319   1.541   1_545  S
C492        C498   1.378       .  A
C493        C501   1.378       .  A
C494       C1323   1.377   1_545  A
C494        N495   1.355       .  A
C494        H507   1.081       .  S
N495        C496   1.353       .  A
N495        C562   1.422       .  S
C496       C1320   1.377   1_545  A
C496        H497   1.082       .  S
C498        N499   1.354       .  A
C498        H508   1.082       .  S
N499        C500   1.357       .  A
N499        C777   1.443       .  S
C500        H506   1.080       .  S
C501        N502   1.364       .  A
C501        H503   1.082       .  S
N502        C504   1.362       .  A
N502        C787   1.447       .  S
C504        H505   1.082       .  S
O509        V517   1.892   1_556  S
O509        C519   1.259       .  A
O510        C520   1.260       .  A
O511        V517   1.896       .  S
O511        C521   1.262       .  A
O513        C522   1.262       .  A
O514        V518   1.895       .  S
O515        V518   1.874       .  S
O515        C520   1.262       .  A
O516        C519   1.263       .  A
C519        C745   1.458       .  S
C520        C749   1.458       .  S
C522        N574   1.420       .  S
O523        V531   1.902       .  S
O523        C533   1.264       .  A
O524        V531   1.904       .  S
O524        C534   1.264       .  A
O525        V531   1.872       .  S
O525        C535   1.257       .  A
O526        V531   1.876       .  S
O526        C536   1.257       .  A
O527        V532   1.891       .  S
O527        C536   1.264       .  A
O528        V532   1.892       .  S
O528        C535   1.263       .  A
O529        V532   1.893       .  S
O529        C534   1.261       .  A
O530        V532   1.895       .  S
O530        C533   1.261       .  A
V531        V532   2.092       .  T
C533        N597   1.424       .  S
C535        C746   1.448       .  S
C536        C750   1.450       .  S
O537        V545   1.895   1_655  S
O537        C547   1.262       .  A
O539        C549   1.260       .  A
O540        V545   1.874       .  S
O540        C550   1.261   1_545  A
O541        V546   1.883       .  S
O541       C1382   1.259       .  A
O542       C1381   1.262       .  A
O543        V546   1.894       .  S
O543       C1380   1.262       .  A
O544        C963   1.263   1_556  A
V545       V1378   2.092   1_545  T
V546       V1377   2.092       .  T
C547        O960   1.262   1_545  A
C548       N1036   1.419       .  S
C548       O1375   1.262   1_545  A
C549       O1374   1.261   1_545  A
C549        C737   1.454       .  S
C550       O1373   1.260       .  A
C550        C742   1.454       .  S
O551        V559   1.900       .  S
O551        C561   1.263       .  A
O552        V559   1.901   1_655  S
O552        C562   1.263       .  A
O553        V559   1.878       .  S
O553        C563   1.261       .  A
O554        V559   1.882       .  S
O554        C564   1.259       .  A
O555        V560   1.877       .  S
O555       C1396   1.262       .  A
O556        V560   1.884       .  S
O556       C1395   1.259       .  A
O557        V560   1.892   1_655  S
O557       C1394   1.261       .  A
O558        V560   1.892       .  S
O558       C1393   1.261       .  A
V559       V1392   2.092   1_545  T
V560       V1391   2.091       .  T
C561        N650   1.422       .  S
C561       O1390   1.261   1_545  A
C562       O1389   1.262   1_545  A
C563       O1388   1.260   1_545  A
C563        C738   1.451   1_545  S
C564       O1387   1.262   1_545  A
C564        C741   1.450       .  S
C565        C567   1.531       .  S
C565        C569   1.545       .  S
C565        C568   1.546       .  S
C565        C718   1.541       .  S
C566        C570   1.541       .  S
C566        C572   1.529       .  S
C566        C571   1.541       .  S
C566        C728   1.534       .  S
C567        C575   1.373       .  A
C568        C579   1.380       .  A
C569        C583   1.379       .  A
C570        C573   1.378       .  A
C571        C577   1.376       .  A
C572        C580   1.374       .  A
C573        H586   1.082       .  S
N574        C575   1.352       .  A
C575        H576   1.083       .  S
C577        H587   1.081       .  S
N578        C579   1.359   1_554  A
N578        C708   1.441       .  S
C579        H585   1.081       .  S
C580        H582   1.082       .  S
N581        C583   1.359   1_554  A
N581        C698   1.439       .  S
C583        H584   1.081       .  S
C588        C590   1.540       .  S
C588        C592   1.534       .  S
C588        C591   1.544       .  S
C588        C731   1.535       .  S
C589        C593   1.536       .  S
C589        C595   1.542       .  S
C589        C594   1.548       .  S
C589        C721   1.539       .  S
C590        C598   1.378       .  A
C590        C593   1.398       .  A
C591        C602   1.378       .  A
C591        C594   1.399       .  A
C592        C606   1.377       .  A
C592        C595   1.393       .  A
C593        C596   1.379       .  A
C594        C600   1.382       .  A
C595        C603   1.376       .  A
C596        N597   1.356       .  A
C596        H609   1.083       .  S
N597        C598   1.351       .  A
C598        H599   1.081       .  S
C600        N601   1.360       .  A
C600        H610   1.081       .  S
N601        C602   1.358       .  A
N601        C688   1.444       .  S
C602        H608   1.081       .  S
C603        N604   1.361       .  A
C603        H605   1.080       .  S
N604        C606   1.361       .  A
N604        C678   1.445       .  S
C606        H607   1.082       .  S
C611        C613   1.542       .  S
C611        C615   1.530       .  S
C611       C1446   1.541       .  S
C611        C668   1.535       .  S
C612        C616   1.532       .  S
C612        C618   1.541       .  S
C612       C1449   1.547       .  S
C612        C658   1.540       .  S
C613        C621   1.379       .  A
C614       C1443   1.542       .  S
C614        C625   1.376       .  A
C615        C629   1.373       .  A
C616        C619   1.377       .  A
C617       C1444   1.546       .  S
C617        C623   1.379       .  A
C618        C626   1.377       .  A
C619        N620   1.354       .  A
C619        H632   1.082       .  S
N620        C964   1.424       .  S
C621        H622   1.082       .  S
C623        N624   1.359   1_556  A
C623        H633   1.081       .  S
N624        C701   1.442       .  S
C625        H631   1.081       .  S
C626        N627   1.358   1_556  A
C626        H628   1.081       .  S
N627        C711   1.438       .  S
C629        H630   1.082       .  S
C634        C636   1.533       .  S
C634        C638   1.539       .  S
C634       C1469   1.540       .  S
C634        C671   1.537       .  S
C635        C639   1.547       .  S
C635        C641   1.538       .  S
C635       C1472   1.548       .  S
C635        C661   1.542       .  S
C636        C644   1.376       .  A
C636        C639   1.394       .  A
C637       C1466   1.544       .  S
C637        C648   1.379       .  A
C637        C640   1.397       .  A
C638        C652   1.377       .  A
C638        C641   1.399       .  A
C639        C642   1.381       .  A
C640       C1467   1.547       .  S
C640        C646   1.379       .  A
C641        C649   1.380       .  A
C642        N643   1.362       .  A
C642        H655   1.080       .  S
N643        C644   1.361       .  A
N643        C691   1.447       .  S
C644        H645   1.082       .  S
C646        N647   1.361       .  A
C646        H656   1.078       .  S
N647        C648   1.359       .  A
N647        C681   1.447       .  S
C648        H654   1.080       .  S
C649       N1482   1.356       .  A
C649        H651   1.082       .  S
N650       C1481   1.353       .  A
N650       C1484   1.354       .  A
C652       N1482   1.351       .  A
C652        H653   1.081       .  S
C657        C658   1.409       .  A
C657        C662   1.403       .  A
C657        H663   1.080       .  S
C658       C1491   1.409       .  A
C659       C1490   1.407       .  A
C659        C660   1.403       .  A
C659        H664   1.081       .  S
C660       C1493   1.409       .  A
C660        H665   1.078       .  S
C661       C1492   1.409       .  A
C661        C662   1.408       .  A
C662        H666   1.080       .  S
C667        C668   1.407       .  A
C667        C672   1.402       .  A
C667        H673   1.081       .  S
C668       C1501   1.409       .  A
C669       C1500   1.409       .  A
C669        C670   1.404       .  A
C669        H674   1.081       .  S
C670       C1503   1.409       .  A
C670        H675   1.081       .  S
C671       C1502   1.407       .  A
C671        C672   1.409       .  A
C672        H676   1.079       .  S
C677        C678   1.406       .  A
C677        C682   1.401       .  A
C677        H683   1.082       .  S
C678        C679   1.406       .  A
C679        C680   1.393       .  A
C679        H684   1.081       .  S
C680        C681   1.406       .  A
C680        H685   1.081       .  S
C681        C682   1.410       .  A
C682        H686   1.080       .  S
C687        C688   1.406       .  A
C687        C692   1.399       .  A
C687        H693   1.082       .  S
C688        C689   1.405       .  A
C689        C690   1.399       .  A
C689        H694   1.082       .  S
C690        C691   1.408       .  A
C690        H695   1.081       .  S
C691        C692   1.407       .  A
C692        H696   1.081       .  S
C697        C698   1.404       .  A
C697        C702   1.398       .  A
C698        C699   1.405   1_554  A
C699        C700   1.396       .  A
C699        H704   1.082       .  S
C700        C701   1.405   1_556  A
C700        H705   1.082       .  S
C701        C702   1.407       .  A
C702        H706   1.082       .  S
C707        C708   1.404   1_556  A
C707        C712   1.396       .  A
C707        H713   1.082       .  S
C708        C709   1.408       .  A
C709        C710   1.399       .  A
C709        H714   1.082       .  S
C710        C711   1.403       .  A
C710        H715   1.082       .  S
C711        C712   1.405   1_554  A
C712        H716   1.083       .  S
C717        C718   1.408       .  A
C717        C722   1.404       .  A
C717        H723   1.078       .  S
C718        C719   1.410       .  A
C719        C720   1.403       .  A
C719        H724   1.081       .  S
C720        C721   1.407       .  A
C720        H725   1.080       .  S
C721        C722   1.409       .  A
C722        H726   1.081       .  S
C727        C728   1.409       .  A
C727        C732   1.401       .  A
C727        H733   1.080       .  S
C728        C729   1.406       .  A
C729        C730   1.400       .  A
C729        H734   1.081       .  S
C730        C731   1.408       .  A
C730        H735   1.078       .  S
C731        C732   1.407       .  A
C732        H736   1.082       .  S
C737        C738   1.338   1_545  D
C737       H1571   1.087       .  S
C738        H740   1.087       .  S
H739       C1569   1.087       .  S
C741        C742   1.336   1_545  D
C741        H743   1.087       .  S
C742       H1576   1.087       .  S
H744       C1574   1.087       .  S
C745        C746   1.335       .  D
C745        H747   1.087       .  S
C746        H748   1.087       .  S
C749        C750   1.336       .  D
C749        H751   1.087       .  S
C750        H752   1.088       .  S
C753       C1586   1.407   1_545  A
C753        C758   1.400       .  A
C753        H759   1.081       .  S
C754       C1295   1.542       .  S
C754       C1585   1.409       .  A
C754        C755   1.410       .  A
C755        C756   1.407       .  A
C755        H760   1.081       .  S
C756        C757   1.410       .  A
C756        H761   1.082       .  S
C757       C1590   1.408       .  A
C758       C1589   1.409   1_545  A
C758        H762   1.082       .  S
C763        C764   1.411       .  A
C763        C768   1.406       .  A
C763        H769   1.082       .  S
C764       C1296   1.537       .  S
C764       C1597   1.406       .  A
C765       C1596   1.409   1_545  A
C765        C766   1.403       .  A
C765        H770   1.081       .  S
C766       C1599   1.409   1_545  A
C766        H771   1.080       .  S
C767       C1598   1.410       .  A
C767        C768   1.408       .  A
C768        H772   1.082       .  S
C773        C774   1.408       .  A
C773        C778   1.401       .  A
C773        H779   1.081       .  S
C774        C775   1.406       .  A
C775        C776   1.393       .  A
C775        H780   1.081       .  S
C776        C777   1.405       .  A
C776        H781   1.082       .  S
C777        C778   1.407       .  A
C778        H782   1.082       .  S
C783        C784   1.407       .  A
C783        C788   1.400       .  A
C783        H789   1.081       .  S
C784        C785   1.408       .  A
C785        C786   1.399       .  A
C785        H790   1.082       .  S
C786        C787   1.406       .  A
C786        H791   1.081       .  S
C787        C788   1.408       .  A
C788        H792   1.082       .  S
C793        C798   1.402       .  A
C793        H799   1.082       .  S
C794        C795   1.405       .  A
C795        C796   1.391       .  A
C795        H800   1.082       .  S
C796        C797   1.402       .  A
C796        H801   1.083       .  S
C798        H802   1.081       .  S
C803        C804   1.406       .  A
C803        C808   1.396       .  A
C803        H809   1.082       .  S
C804        C805   1.405   1_556  A
C805        C806   1.396       .  A
C806        C807   1.405   1_554  A
C806        H811   1.082       .  S
C807        C808   1.405       .  A
C808        H812   1.082       .  S
C813        C814   1.410       .  A
C813        C818   1.403       .  A
C813        H819   1.080       .  S
C814        C815   1.406       .  A
C815        C816   1.401       .  A
C815        H820   1.081       .  S
C816        C817   1.409       .  A
C816        H821   1.080       .  S
C817        C818   1.407       .  A
C818        H822   1.081       .  S
C823        C824   1.406       .  A
C823        C828   1.401       .  A
C823        H829   1.082       .  S
C824        C825   1.411       .  A
C825        C826   1.404       .  A
C825        H830   1.080       .  S
C826        C827   1.407       .  A
C826        H831   1.081       .  S
C827        C828   1.410       .  A
C828        H832   1.080       .  S
C833        C835   1.531       .  S
C833        C837   1.543       .  S
C833        C836   1.542       .  S
C833       C1230   1.537       .  S
C834        C838   1.532       .  S
C834        C840   1.544       .  S
C834        C839   1.543       .  S
C834       C1240   1.538       .  S
C835        C843   1.374       .  A
C835       C1254   1.393       .  A
C836        C847   1.376       .  A
C836       C1255   1.395       .  A
C837        C851   1.378       .  A
C837       C1256   1.403       .  A
C838       C1251   1.393   1_554  A
C838        C841   1.377       .  A
C839       C1252   1.400   1_554  A
C839        C845   1.379       .  A
C840       C1253   1.400   1_554  A
C840        C848   1.379       .  A
C841        N842   1.356       .  A
C841        H854   1.082       .  S
N842       C1259   1.356   1_554  A
N842       C1353   1.425   1_554  S
C843       N1258   1.355       .  A
C843        H844   1.083       .  S
C845       N1262   1.358       .  A
C845        H855   1.081       .  S
N846       C1261   1.363       .  A
N846        C847   1.362       .  A
N846       C1210   1.450       .  S
C847        H853   1.080       .  S
C848       N1265   1.359   1_554  A
C848        H850   1.081       .  S
N849       C1264   1.356       .  A
N849        C851   1.357       .  A
N849       C1220   1.439       .  S
C851        H852   1.080       .  S
C856        C858   1.533       .  S
C856        C860   1.545       .  S
C856        C859   1.547       .  S
C856       C1243   1.538       .  S
C857        C861   1.537       .  S
C857        C863   1.543       .  S
C857        C862   1.547       .  S
C857       C1233   1.538       .  S
C858        C866   1.379       .  A
C858        C861   1.392       .  A
C859        C870   1.380       .  A
C859        C862   1.403       .  A
C860        C874   1.381       .  A
C860        C863   1.396       .  A
C861        C864   1.380       .  A
C862        C868   1.386       .  A
C863        C871   1.376       .  A
C864        N865   1.358       .  A
C864        H877   1.083       .  S
N865        C866   1.357       .  A
N865        C950   1.431       .  S
C866        H867   1.083       .  S
C868        N869   1.358       .  A
C868        H878   1.080       .  S
N869        C870   1.356       .  A
N869       C1190   1.446       .  S
C870        H876   1.081       .  S
C871        N872   1.360       .  A
C871        H873   1.081       .  S
N872        C874   1.361       .  A
N872       C1200   1.446       .  S
C874        H875   1.081       .  S
C879        C882   1.547       .  S
C880        C885   1.544       .  S
C881       C1300   1.404       .  A
C882        C893   1.381       .  A
C882       C1301   1.410       .  A
C883        C897   1.373       .  A
C883       C1302   1.391       .  A
C884       C1297   1.401   1_554  A
C885       C1298   1.403   1_554  A
C885        C891   1.381       .  A
C886       C1299   1.388   1_554  A
C886        C894   1.379       .  A
C887       N1304   1.355       .  A
C887        H900   1.081       .  S
N888       C1303   1.354       .  A
N888        C889   1.355       .  A
N888       C1379   1.423       .  S
C889        H890   1.082       .  S
C891       N1308   1.357       .  A
C891        H901   1.081       .  S
N892       C1307   1.358       .  A
N892        C893   1.357       .  A
N892       C1213   1.450       .  S
C893        H899   1.080       .  S
C894       N1311   1.362   1_554  A
C894        H896   1.082       .  S
N895       C1310   1.358       .  A
N895        C897   1.361       .  A
N895       C1223   1.438       .  S
C897        H898   1.082       .  S
C902        C904   1.544       .  S
C902        C906   1.535       .  S
C902       C1183   1.540       .  S
C903        C907   1.542       .  S
C903        C909   1.531       .  S
C903       C1173   1.539       .  S
C904        C907   1.401       .  A
C905        C916   1.382       .  A
C905        C908   1.404       .  A
C906        C920   1.379       .  A
C906        C909   1.390       .  A
C908        C914   1.382       .  A
C909        C917   1.373       .  A
C910        N911   1.357       .  A
C910        H923   1.082       .  S
N911        C912   1.353       .  A
N911        C978   1.425       .  S
C912        H913   1.082       .  S
C914        N915   1.356       .  A
C914        H924   1.080       .  S
N915        C916   1.357       .  A
N915       C1193   1.445       .  S
C916        H922   1.082       .  S
C917        N918   1.361       .  A
C917        H919   1.082       .  S
N918        C920   1.363       .  A
N918       C1203   1.445       .  S
C920        H921   1.082       .  S
O925        V933   1.878       .  S
O925        C935   1.263       .  A
O926       V1349   1.884       .  S
O926        C936   1.264       .  A
O927        V933   1.897       .  S
O927        C937   1.263       .  A
O928       V1349   1.900       .  S
O928       C1354   1.263   1_554  A
O929       V1350   1.898       .  S
O929        C938   1.263       .  A
O930        V934   1.896       .  S
O930       C1353   1.262       .  A
O931        V934   1.884   1_554  S
O931        C936   1.258       .  A
O932       V1350   1.893       .  S
O932        C935   1.260       .  A
V933       O1342   1.890       .  S
V933       O1344   1.899       .  S
V933       V1350   2.090       .  T
V934       O1345   1.894       .  S
V934       O1348   1.874       .  S
V934       V1349   2.091   1_556  T
C935       C1161   1.461       .  S
C936       C1165   1.456       .  S
C937       N1258   1.423       .  S
C937       O1346   1.262       .  A
C938        N990   1.424       .  S
C938       O1344   1.263       .  A
O939        V947   1.895       .  S
O939        C949   1.261       .  A
O940        V947   1.897       .  S
O940        C950   1.262       .  A
O941        V947   1.896       .  S
O941        C951   1.264       .  A
O942        V947   1.892       .  S
O942        C952   1.265       .  A
O943        V948   1.878       .  S
O943        C952   1.257       .  A
O944        V948   1.873       .  S
O944        C951   1.257       .  A
O945        V948   1.913       .  S
O945        C950   1.267       .  A
O946        V948   1.914       .  S
O946        C949   1.267       .  A
V947        V948   2.091       .  T
C949       N1013   1.430       .  S
C951       C1162   1.451       .  S
C952       C1166   1.453       .  S
O953        V961   1.902   1_655  S
O953        C963   1.263       .  A
O954       V1377   1.902       .  S
O954       C1380   1.264       .  A
O955       V1377   1.886       .  S
O955        C965   1.259       .  A
O956        V961   1.876       .  S
O956        C966   1.261       .  A
O957        V962   1.879   1_554  S
O958       V1378   1.879       .  S
O959        V962   1.897       .  S
O960       V1378   1.892   1_655  S
V961       O1370   1.901       .  S
V961       O1371   1.882   1_554  S
V962       O1374   1.875       .  S
V962       O1376   1.894   1_455  S
C963       N1304   1.425       .  S
C964       O1370   1.263   1_556  A
C965       C1153   1.449       .  S
C966       C1158   1.454       .  S
O967        V975   1.903       .  S
O967        C977   1.264       .  A
O968        V975   1.904   1_655  S
O968        C978   1.264       .  A
O969        V975   1.875       .  S
O969        C979   1.260       .  A
O970        V975   1.884       .  S
O970        C980   1.259       .  A
O971        V976   1.874       .  S
O972        V976   1.884       .  S
O973        V976   1.898   1_655  S
O974        V976   1.898       .  S
C977       N1066   1.424       .  S
C979       C1154   1.446       .  S
C980       C1157   1.451       .  S
C981        C983   1.532       .  S
C981        C985   1.542       .  S
C981        C984   1.545       .  S
C981       C1134   1.539       .  S
C982        C986   1.542       .  S
C982        C988   1.533       .  S
C982        C987   1.541       .  S
C982       C1144   1.537       .  S
C983        C991   1.375       .  A
C983       C1402   1.398       .  A
C984        C995   1.378       .  A
C984       C1403   1.400       .  A
C985        C999   1.377       .  A
C985       C1404   1.396       .  A
C986       C1399   1.397   1_554  A
C986        C989   1.379       .  A
C987       C1400   1.399   1_554  A
C987        C993   1.376       .  A
C988       C1401   1.397   1_554  A
C988        C996   1.376       .  A
C989       N1406   1.354   1_554  A
C989       H1002   1.082       .  S
N990       C1405   1.355       .  A
N990        C991   1.354       .  A
C991        H992   1.083       .  S
C993       N1410   1.358   1_554  A
C993       H1003   1.082       .  S
N994       C1409   1.356       .  A
N994        C995   1.358       .  A
N994       C1124   1.438       .  S
C995       H1001   1.081       .  S
C996       N1413   1.357       .  A
C996        H998   1.082       .  S
N997       C1412   1.358       .  A
N997        C999   1.358       .  A
N997       C1114   1.437       .  S
C999       H1000   1.081       .  S
C1004      C1006   1.543       .  S
C1004      C1008   1.535       .  S
C1004      C1007   1.544       .  S
C1004      C1147   1.539       .  S
C1005      C1009   1.538       .  S
C1005      C1011   1.545       .  S
C1005      C1010   1.544       .  S
C1005      C1137   1.540       .  S
C1006      C1014   1.381       .  A
C1006      C1009   1.396       .  A
C1007      C1018   1.376       .  A
C1007      C1010   1.399       .  A
C1008      C1022   1.379       .  A
C1008      C1011   1.396       .  A
C1009      C1012   1.379       .  A
C1010      C1016   1.380       .  A
C1011      C1019   1.379       .  A
C1012      N1013   1.357       .  A
C1012      H1025   1.083       .  S
N1013      C1014   1.357       .  A
C1014      H1015   1.082       .  S
C1016      N1017   1.359       .  A
C1016      H1026   1.080       .  S
N1017      C1018   1.358       .  A
N1017      C1104   1.443       .  S
C1018      H1024   1.080       .  S
C1019      N1020   1.358       .  A
C1019      H1021   1.081       .  S
N1020      C1022   1.360       .  A
N1020      C1094   1.443       .  S
C1022      H1023   1.082       .  S
C1027      C1029   1.547       .  S
C1027      C1031   1.535   1_545  S
C1027      C1084   1.538   1_545  S
C1028      C1032   1.528       .  S
C1028      C1034   1.540   1_545  S
C1028      C1074   1.539       .  S
C1029      C1037   1.383       .  A
C1029      C1448   1.398   1_554  A
C1030      C1041   1.378       .  A
C1030      C1449   1.400   1_554  A
C1031      C1045   1.377       .  A
C1031      C1450   1.395   1_554  A
C1032      C1445   1.397       .  A
C1032      C1035   1.373       .  A
C1033      C1446   1.399       .  A
C1033      C1039   1.378       .  A
C1034      C1447   1.394       .  A
C1034      C1042   1.376       .  A
C1035      N1036   1.351       .  A
C1035      H1048   1.082       .  S
N1036      C1453   1.354       .  A
C1037      N1452   1.356   1_554  A
C1037      H1038   1.082       .  S
C1039      N1040   1.359       .  A
C1039      H1049   1.081       .  S
N1040      C1457   1.358       .  A
N1040      C1117   1.440       .  S
C1041      N1456   1.357       .  A
C1041      H1047   1.082       .  S
C1042      N1043   1.360       .  A
C1042      H1044   1.081       .  S
N1043      C1461   1.360       .  A
N1043      C1127   1.441       .  S
C1045      N1459   1.359   1_554  A
C1045      H1046   1.082       .  S
C1050      C1052   1.531   1_545  S
C1050      C1054   1.542       .  S
C1050      C1087   1.538   1_545  S
C1051      C1055   1.545   1_545  S
C1051      C1057   1.537       .  S
C1051      C1077   1.542       .  S
C1052      C1060   1.373       .  A
C1052      C1055   1.395       .  A
C1053      C1064   1.376       .  A
C1053      C1056   1.398       .  A
C1054      C1068   1.379       .  A
C1054      C1057   1.399       .  A
C1055      C1058   1.380       .  A
C1056      C1062   1.380       .  A
C1057      C1065   1.378       .  A
C1058      N1059   1.358       .  A
C1058      H1071   1.081       .  S
N1059      C1060   1.359       .  A
N1059      C1107   1.440       .  S
C1060      H1061   1.082       .  S
C1062      N1063   1.361       .  A
C1062      H1072   1.080       .  S
N1063      C1064   1.358       .  A
N1063      C1097   1.444       .  S
C1064      H1070   1.080       .  S
C1065      H1067   1.083       .  S
C1068      H1069   1.081       .  S
C1073      C1074   1.409   1_565  A
C1073      C1078   1.403       .  A
C1073      H1079   1.080       .  S
C1075      C1076   1.403       .  A
C1075      H1080   1.080       .  S
C1076      H1081   1.080       .  S
C1077      C1078   1.408   1_545  A
C1078      H1082   1.080       .  S
C1083      C1084   1.408       .  A
C1083      C1088   1.403       .  A
C1083      H1089   1.080       .  S
C1085      C1086   1.402       .  A
C1085      H1090   1.082       .  S
C1086      H1091   1.081       .  S
C1087      C1088   1.409       .  A
C1088      H1092   1.080       .  S
C1093      C1094   1.405       .  A
C1093      C1098   1.399       .  A
C1093      H1099   1.082       .  S
C1094      C1095   1.406       .  A
C1095      C1096   1.395       .  A
C1095      H1100   1.082       .  S
C1096      C1097   1.405       .  A
C1096      H1101   1.081       .  S
C1097      C1098   1.409       .  A
C1098      H1102   1.081       .  S
C1103      C1104   1.407       .  A
C1103      C1108   1.394       .  A
C1103      H1109   1.081       .  S
C1104      C1105   1.406       .  A
C1105      C1106   1.398       .  A
C1105      H1110   1.082       .  S
C1106      C1107   1.406       .  A
C1106      H1111   1.082       .  S
C1107      C1108   1.402       .  A
C1108      H1112   1.082       .  S
C1113      C1114   1.403       .  A
C1113      C1118   1.395       .  A
C1113      H1535   1.082       .  S
C1114      C1115   1.404       .  A
C1115      C1116   1.395       .  A
C1115      H1120   1.083       .  S
C1116      C1117   1.405       .  A
C1116      H1121   1.081       .  S
C1117      C1118   1.406       .  A
C1118      H1122   1.082       .  S
H1119      C1529   1.083       .  S
C1123      C1124   1.404       .  A
C1123      C1128   1.395       .  A
C1123      H1129   1.082       .  S
C1124      C1125   1.404       .  A
C1125      C1126   1.395       .  A
C1125      H1130   1.082       .  S
C1126      C1127   1.406       .  A
C1126      H1131   1.081       .  S
C1127      C1128   1.406       .  A
C1128      H1132   1.081       .  S
C1133      C1134   1.408       .  A
C1133      C1138   1.401       .  A
C1133      H1139   1.080       .  S
C1134      C1135   1.409       .  A
C1135      C1136   1.404       .  A
C1135      H1140   1.080       .  S
C1136      C1137   1.408       .  A
C1136      H1141   1.081       .  S
C1137      C1138   1.409       .  A
C1138      H1142   1.079       .  S
C1143      C1144   1.408       .  A
C1143      C1148   1.402       .  A
C1143      H1149   1.081       .  S
C1144      C1145   1.409       .  A
C1145      C1146   1.403       .  A
C1145      H1150   1.079       .  S
C1146      C1147   1.407       .  A
C1146      H1151   1.082       .  S
C1147      C1148   1.409       .  A
C1148      H1152   1.079       .  S
C1153      C1154   1.336       .  D
C1154      H1156   1.087       .  S
C1157      C1158   1.337       .  D
C1157      H1159   1.087       .  S
C1161      C1162   1.335       .  D
C1161      H1163   1.087       .  S
C1162      H1164   1.088       .  S
C1165      C1166   1.334       .  D
C1165      H1167   1.087       .  S
C1166      H1168   1.087       .  S
C1169      C1174   1.400       .  A
C1169      H1175   1.081       .  S
C1170      C1171   1.409       .  A
C1171      C1172   1.404       .  A
C1171      H1176   1.080       .  S
C1172      C1173   1.408       .  A
C1172      H1177   1.081       .  S
C1174      H1178   1.080       .  S
C1179      C1180   1.407       .  A
C1179      C1184   1.406       .  A
C1179      H1185   1.082       .  S
C1181      C1182   1.399       .  A
C1181      H1186   1.081       .  S
C1182      H1187   1.080       .  S
C1183      C1184   1.410       .  A
C1184      H1188   1.081       .  S
C1189      C1190   1.406       .  A
C1189      C1194   1.396       .  A
C1189      H1195   1.082       .  S
C1190      C1191   1.407       .  A
C1191      C1192   1.401       .  A
C1191      H1196   1.082       .  S
C1192      C1193   1.408       .  A
C1192      H1197   1.081       .  S
C1193      C1194   1.405       .  A
C1194      H1198   1.082       .  S
C1199      C1200   1.407       .  A
C1199      C1204   1.402       .  A
C1199      H1205   1.082       .  S
C1200      C1201   1.407       .  A
C1201      C1202   1.394       .  A
C1201      H1206   1.081       .  S
C1202      C1203   1.405       .  A
C1202      H1207   1.082       .  S
C1203      C1204   1.407       .  A
C1204      H1208   1.082       .  S
C1209      C1626   1.407       .  A
C1209      C1214   1.397       .  A
C1209      H1215   1.081       .  S
C1210      C1625   1.408       .  A
C1210      C1211   1.408       .  A
C1211      C1212   1.397       .  A
C1211      H1216   1.080       .  S
C1212      C1213   1.408       .  A
C1212      H1217   1.080       .  S
C1213      C1630   1.408       .  A
C1214      C1629   1.408       .  A
C1214      H1218   1.081       .  S
C1219      C1220   1.406       .  A
C1219      C1224   1.395       .  A
C1219      H1225   1.082       .  S
C1220      C1221   1.404       .  A
C1221      C1222   1.393       .  A
C1221      H1642   1.082       .  S
C1222      C1223   1.405       .  A
C1222      H1227   1.082       .  S
C1223      C1224   1.405       .  A
C1224      H1228   1.082       .  S
H1226      C1637   1.082       .  S
C1229      C1230   1.408       .  A
C1229      C1234   1.402       .  A
C1229      H1235   1.082       .  S
C1230      C1231   1.409       .  A
C1231      C1232   1.403       .  A
C1231      H1236   1.079       .  S
C1232      C1233   1.409       .  A
C1232      H1237   1.082       .  S
C1233      C1234   1.408       .  A
C1234      H1238   1.080       .  S
C1239      C1240   1.409       .  A
C1239      C1244   1.406       .  A
C1239      H1245   1.080       .  S
C1240      C1241   1.408       .  A
C1241      C1242   1.399       .  A
C1241      H1246   1.082       .  S
C1242      C1243   1.408       .  A
C1242      H1247   1.080       .  S
C1243      C1244   1.409       .  A
C1244      H1248   1.081       .  S
C1249      C1251   1.533       .  S
C1249      C1253   1.545       .  S
C1249      C1252   1.545       .  S
C1249      C1646   1.541       .  S
C1250      C1254   1.531       .  S
C1250      C1256   1.544       .  S
C1250      C1255   1.543       .  S
C1250      C1656   1.538       .  S
C1251      C1259   1.376       .  A
C1252      C1263   1.382       .  A
C1253      C1267   1.377       .  A
C1254      C1257   1.376       .  A
C1255      C1261   1.376       .  A
C1256      C1264   1.377       .  A
C1257      N1258   1.356       .  A
C1257      H1270   1.083       .  S
C1259      H1260   1.083       .  S
C1261      H1271   1.078       .  S
N1262      C1263   1.359   1_554  A
N1262      C1626   1.447       .  S
C1263      H1269   1.080       .  S
C1264      H1266   1.082       .  S
N1265      C1267   1.360       .  A
N1265      C1636   1.442       .  S
C1267      H1268   1.081       .  S
C1272      C1274   1.528       .  S
C1272      C1276   1.541       .  S
C1272      C1275   1.541       .  S
C1272      C1659   1.540       .  S
C1273      C1277   1.535       .  S
C1273      C1279   1.547       .  S
C1273      C1278   1.548       .  S
C1273      C1649   1.542       .  S
C1274      C1282   1.374       .  A
C1274      C1277   1.392       .  A
C1275      C1286   1.373       .  A
C1275      C1278   1.400       .  A
C1276      C1290   1.379       .  A
C1276      C1279   1.404       .  A
C1277      C1280   1.378       .  A
C1278      C1284   1.381       .  A
C1279      C1287   1.386       .  A
C1280      N1281   1.358       .  A
C1280      H1293   1.082       .  S
N1281      C1282   1.355       .  A
N1281      C1366   1.424       .  S
C1282      H1283   1.083       .  S
C1284      N1285   1.362       .  A
C1284      H1294   1.081       .  S
N1285      C1286   1.360       .  A
N1285      C1606   1.444       .  S
C1286      H1292   1.080       .  S
C1287      N1288   1.356       .  A
C1287      H1289   1.080       .  S
N1288      C1290   1.352       .  A
N1288      C1616   1.440       .  S
C1290      H1291   1.082       .  S
C1295      C1298   1.546       .  S
C1296      C1301   1.547       .  S
C1298      C1309   1.382       .  A
C1299      C1313   1.373       .  A
C1301      C1307   1.382       .  A
C1302      C1310   1.369       .  A
C1303      H1316   1.082       .  S
N1304      C1305   1.355   1_554  A
C1305      H1306   1.082       .  S
C1307      H1317   1.079       .  S
N1308      C1309   1.359   1_554  A
N1308      C1629   1.448       .  S
C1309      H1315   1.080       .  S
C1310      H1312   1.082       .  S
N1311      C1313   1.359       .  A
N1311      C1639   1.442       .  S
C1313      H1314   1.082       .  S
C1318      C1320   1.541       .  S
C1318      C1322   1.534       .  S
C1318      C1599   1.539       .  S
C1319      C1323   1.542       .  S
C1319      C1325   1.530       .  S
C1319      C1589   1.539       .  S
C1320      C1323   1.402       .  A
C1321      C1332   1.379       .  A
C1321      C1324   1.409       .  A
C1322      C1336   1.375       .  A
C1322      C1325   1.391       .  A
C1324      C1330   1.387       .  A
C1325      C1333   1.375       .  A
C1326      N1327   1.354       .  A
C1326      H1339   1.082       .  S
N1327      C1328   1.355       .  A
N1327      C1394   1.424       .  S
C1328      H1329   1.082       .  S
C1330      N1331   1.356       .  A
C1330      H1340   1.081       .  S
N1331      C1332   1.352       .  A
N1331      C1609   1.443       .  S
C1332      H1338   1.082       .  S
C1333      N1334   1.360       .  A
C1333      H1335   1.083       .  S
N1334      C1336   1.362       .  A
N1334      C1619   1.441       .  S
C1336      H1337   1.082       .  S
O1341      V1349   1.893   1_556  S
O1341      C1351   1.260       .  A
O1342      C1352   1.260       .  A
O1343      V1349   1.902       .  S
O1343      C1353   1.264   1_554  A
O1345      C1354   1.262       .  A
O1346      V1350   1.898       .  S
O1347      V1350   1.879       .  S
O1347      C1352   1.263       .  A
O1348      C1351   1.262       .  A
C1351      C1577   1.457       .  S
C1352      C1581   1.458       .  S
C1354      N1406   1.422       .  S
O1355      V1363   1.905       .  S
O1355      C1365   1.265       .  A
O1356      V1363   1.907       .  S
O1356      C1366   1.265       .  A
O1357      V1363   1.876       .  S
O1357      C1367   1.257       .  A
O1358      V1363   1.880       .  S
O1358      C1368   1.258       .  A
O1359      V1364   1.890       .  S
O1359      C1368   1.263       .  A
O1360      V1364   1.888       .  S
O1360      C1367   1.263       .  A
O1361      V1364   1.891       .  S
O1361      C1366   1.261       .  A
O1362      V1364   1.893       .  S
O1362      C1365   1.260       .  A
V1363      V1364   2.092       .  T
C1365      N1429   1.425       .  S
C1367      C1578   1.449       .  S
C1368      C1582   1.452       .  S
O1369      V1377   1.902   1_655  S
O1369      C1379   1.263       .  A
O1371      C1381   1.258       .  A
O1372      V1377   1.880       .  S
O1372      C1382   1.262       .  A
O1373      V1378   1.889       .  S
O1375      V1378   1.893       .  S
C1381      C1569   1.450       .  S
C1382      C1574   1.450       .  S
O1383      V1391   1.904       .  S
O1383      C1393   1.264       .  A
O1384      V1391   1.904   1_655  S
O1384      C1394   1.264       .  A
O1385      V1391   1.877       .  S
O1385      C1395   1.262       .  A
O1386      V1391   1.888       .  S
O1386      C1396   1.260       .  A
O1387      V1392   1.883       .  S
O1388      V1392   1.885       .  S
O1389      V1392   1.893   1_655  S
O1390      V1392   1.893       .  S
C1393      N1482   1.423       .  S
C1395      C1570   1.451       .  S
C1396      C1573   1.453       .  S
C1397      C1399   1.530       .  S
C1397      C1401   1.543       .  S
C1397      C1400   1.546       .  S
C1397      C1550   1.537       .  S
C1398      C1402   1.542       .  S
C1398      C1404   1.531       .  S
C1398      C1403   1.541       .  S
C1398      C1560   1.538       .  S
C1399      C1407   1.374       .  A
C1400      C1411   1.380       .  A
C1401      C1415   1.378       .  A
C1402      C1405   1.379       .  A
C1403      C1409   1.375       .  A
C1404      C1412   1.373       .  A
C1405      H1418   1.082       .  S
N1406      C1407   1.352       .  A
C1407      H1408   1.083       .  S
C1409      H1419   1.081       .  S
N1410      C1411   1.359       .  A
N1410      C1540   1.439       .  S
C1411      H1417   1.081       .  S
C1412      H1414   1.082       .  S
N1413      C1415   1.358   1_554  A
N1413      C1530   1.436       .  S
C1415      H1416   1.081       .  S
C1420      C1422   1.543       .  S
C1420      C1424   1.534       .  S
C1420      C1423   1.547       .  S
C1420      C1563   1.539       .  S
C1421      C1425   1.534       .  S
C1421      C1427   1.543       .  S
C1421      C1426   1.546       .  S
C1421      C1553   1.538       .  S
C1422      C1430   1.380       .  A
C1422      C1425   1.398       .  A
C1423      C1434   1.382       .  A
C1423      C1426   1.398       .  A
C1424      C1438   1.375       .  A
C1424      C1427   1.394       .  A
C1425      C1428   1.377       .  A
C1426      C1432   1.381       .  A
C1427      C1435   1.378       .  A
C1428      N1429   1.355       .  A
C1428      H1441   1.082       .  S
N1429      C1430   1.353       .  A
C1430      H1431   1.081       .  S
C1432      N1433   1.358       .  A
C1432      H1442   1.081       .  S
N1433      C1434   1.361       .  A
N1433      C1520   1.445       .  S
C1434      H1440   1.080       .  S
C1435      N1436   1.361       .  A
C1435      H1437   1.079       .  S
N1436      C1438   1.361       .  A
N1436      C1510   1.444       .  S
C1438      H1439   1.082       .  S
C1443      C1445   1.542       .  S
C1443      C1447   1.532   1_545  S
C1443      C1500   1.540       .  S
C1444      C1448   1.532       .  S
C1444      C1450   1.540   1_545  S
C1444      C1490   1.537       .  S
C1445      C1453   1.378       .  A
C1446      C1457   1.375       .  A
C1447      C1461   1.372       .  A
C1448      C1451   1.376       .  A
C1449      C1455   1.378       .  A
C1450      C1458   1.377       .  A
C1451      N1452   1.354       .  A
C1451      H1464   1.083       .  S
C1453      H1454   1.082       .  S
C1455      N1456   1.359   1_556  A
C1455      H1465   1.081       .  S
N1456      C1533   1.439       .  S
C1457      H1463   1.081       .  S
C1458      N1459   1.356       .  A
C1458      H1460   1.082       .  S
N1459      C1543   1.436       .  S
C1461      H1462   1.082       .  S
C1466      C1468   1.537   1_545  S
C1466      C1470   1.544       .  S
C1466      C1503   1.540       .  S
C1467      C1471   1.544   1_545  S
C1467      C1473   1.530       .  S
C1467      C1493   1.539       .  S
C1468      C1476   1.377       .  A
C1468      C1471   1.396       .  A
C1469      C1480   1.377       .  A
C1469      C1472   1.398       .  A
C1470      C1484   1.379       .  A
C1470      C1473   1.398       .  A
C1471      C1474   1.381       .  A
C1472      C1478   1.380       .  A
C1473      C1481   1.375       .  A
C1474      N1475   1.360       .  A
C1474      H1487   1.081       .  S
N1475      C1476   1.360       .  A
N1475      C1523   1.443       .  S
C1476      H1477   1.083       .  S
C1478      N1479   1.360       .  A
C1478      H1488   1.081       .  S
N1479      C1480   1.358       .  A
N1479      C1513   1.442       .  S
C1480      H1486   1.081       .  S
C1481      H1483   1.083       .  S
C1484      H1485   1.081       .  S
C1489      C1490   1.408   1_565  A
C1489      C1494   1.401       .  A
C1489      H1495   1.080       .  S
C1491      C1492   1.404       .  A
C1491      H1496   1.080       .  S
C1492      H1497   1.079       .  S
C1493      C1494   1.408   1_545  A
C1494      H1498   1.081       .  S
C1499      C1500   1.409   1_565  A
C1499      C1504   1.403       .  A
C1499      H1505   1.080       .  S
C1501      C1502   1.402       .  A
C1501      H1506   1.080       .  S
C1502      H1507   1.082       .  S
C1503      C1504   1.408   1_545  A
C1504      H1508   1.080       .  S
C1509      C1510   1.407       .  A
C1509      C1514   1.398       .  A
C1509      H1515   1.081       .  S
C1510      C1511   1.407       .  A
C1511      C1512   1.397       .  A
C1511      H1516   1.081       .  S
C1512      C1513   1.405       .  A
C1512      H1517   1.082       .  S
C1513      C1514   1.405       .  A
C1514      H1518   1.082       .  S
C1519      C1520   1.406       .  A
C1519      C1524   1.399       .  A
C1519      H1525   1.082       .  S
C1520      C1521   1.408       .  A
C1521      C1522   1.400       .  A
C1521      H1526   1.081       .  S
C1522      C1523   1.406       .  A
C1522      H1527   1.083       .  S
C1523      C1524   1.404       .  A
C1524      H1528   1.082       .  S
C1529      C1530   1.403       .  A
C1529      C1534   1.399       .  A
C1530      C1531   1.404   1_554  A
C1531      C1532   1.394       .  A
C1531      H1536   1.082       .  S
C1532      C1533   1.403   1_556  A
C1532      H1537   1.083       .  S
C1533      C1534   1.407       .  A
C1534      H1538   1.082       .  S
C1539      C1540   1.404       .  A
C1539      C1544   1.397       .  A
C1539      H1545   1.082       .  S
C1540      C1541   1.406   1_556  A
C1541      C1542   1.397       .  A
C1541      H1546   1.082       .  S
C1542      C1543   1.402   1_554  A
C1542      H1547   1.083       .  S
C1543      C1544   1.405       .  A
C1544      H1548   1.083       .  S
C1549      C1550   1.409       .  A
C1549      C1554   1.403       .  A
C1549      H1555   1.079       .  S
C1550      C1551   1.408       .  A
C1551      C1552   1.401       .  A
C1551      H1556   1.081       .  S
C1552      C1553   1.408       .  A
C1552      H1557   1.080       .  S
C1553      C1554   1.408       .  A
C1554      H1558   1.080       .  S
C1559      C1560   1.410       .  A
C1559      C1564   1.403       .  A
C1559      H1565   1.080       .  S
C1560      C1561   1.407       .  A
C1561      C1562   1.402       .  A
C1561      H1566   1.081       .  S
C1562      C1563   1.409       .  A
C1562      H1567   1.079       .  S
C1563      C1564   1.408       .  A
C1564      H1568   1.081       .  S
C1569      C1570   1.335       .  D
C1570      H1572   1.087       .  S
C1573      C1574   1.336       .  D
C1573      H1575   1.087       .  S
C1577      C1578   1.336       .  D
C1577      H1579   1.087       .  S
C1578      H1580   1.088       .  S
C1581      C1582   1.336       .  D
C1581      H1583   1.087       .  S
C1582      H1584   1.087       .  S
C1585      C1590   1.402       .  A
C1585      H1591   1.081       .  S
C1586      C1587   1.410       .  A
C1587      C1588   1.406       .  A
C1587      H1592   1.082       .  S
C1588      C1589   1.408       .  A
C1588      H1593   1.081       .  S
C1590      H1594   1.081       .  S
C1595      C1596   1.410       .  A
C1595      C1600   1.404       .  A
C1595      H1601   1.081       .  S
C1597      C1598   1.400       .  A
C1597      H1602   1.081       .  S
C1598      H1603   1.081       .  S
C1599      C1600   1.408       .  A
C1600      H1604   1.082       .  S
C1605      C1606   1.406       .  A
C1605      C1610   1.392       .  A
C1605      H1611   1.081       .  S
C1606      C1607   1.407       .  A
C1607      C1608   1.402       .  A
C1607      H1612   1.082       .  S
C1608      C1609   1.407       .  A
C1608      H1613   1.082       .  S
C1609      C1610   1.405       .  A
C1610      H1614   1.082       .  S
C1615      C1616   1.405       .  A
C1615      C1620   1.394       .  A
C1615      H1621   1.082       .  S
C1616      C1617   1.405       .  A
C1617      C1618   1.401       .  A
C1617      H1622   1.082       .  S
C1618      C1619   1.407       .  A
C1618      H1623   1.082       .  S
C1619      C1620   1.403       .  A
C1620      H1624   1.082       .  S
C1625      C1630   1.397       .  A
C1625      H1631   1.080       .  S
C1626      C1627   1.407   1_554  A
C1627      C1628   1.398       .  A
C1627      H1632   1.081       .  S
C1628      C1629   1.407   1_556  A
C1628      H1633   1.080       .  S
C1630      H1634   1.080       .  S
C1635      C1636   1.405       .  A
C1635      C1640   1.396       .  A
C1635      H1641   1.083       .  S
C1636      C1637   1.407   1_556  A
C1637      C1638   1.400       .  A
C1638      C1639   1.405   1_554  A
C1638      H1643   1.083       .  S
C1639      C1640   1.406       .  A
C1640      H1644   1.081       .  S
C1645      C1646   1.412       .  A
C1645      C1650   1.406       .  A
C1645      H1651   1.079       .  S
C1646      C1647   1.406       .  A
C1647      C1648   1.403       .  A
C1647      H1652   1.082       .  S
C1648      C1649   1.412       .  A
C1648      H1653   1.080       .  S
C1649      C1650   1.407       .  A
C1650      H1654   1.082       .  S
C1655      C1656   1.407       .  A
C1655      C1660   1.400       .  A
C1655      H1661   1.081       .  S
C1656      C1657   1.409       .  A
C1657      C1658   1.405       .  A
C1657      H1662   1.081       .  S
C1658      C1659   1.408       .  A
C1658      H1663   1.081       .  S
C1659      C1660   1.409       .  A
C1660      H1664   1.080       .  S
