geometry optimzed in LAMMPS
_audit_creation_date              2020-11-30 
_audit_creation_method            'lammps2cif' 
_symmetry_space_group_name_H-M    'P1' 
_symmetry_Int_Tables_number       1 
_symmetry_cell_setting            triclinic 
loop_ 
_symmetry_equiv_pos_as_xyz 
  x,y,z 
_cell_length_a                    46.94529403 
_cell_length_b                    47.21617231997662 
_cell_length_c                    43.86823992211105 
_cell_angle_alpha                 90.05498571857329 
_cell_angle_beta                  89.76093491418914 
_cell_angle_gamma                 89.7933850948666 
loop_ 
_atom_site_label 
_atom_site_type_symbol 
_atom_site_fract_x 
_atom_site_fract_y 
_atom_site_fract_z 
_atom_site_charge 
C1          C  0.53404552  0.33572136  0.02005729     0.04000
C2          C  0.54571872  0.32338605  0.48811046    -0.12200
C3          C  0.57492227  0.32934947  0.48990707     0.01500
C4          C  0.58739757  0.33345096  0.51853217    -0.10700
C5          C  0.57684627  0.34168766  0.05001908     0.04000
C6          C  0.54736424  0.33809120  0.04846099    -0.10100
H7          H  0.53597478  0.32002912  0.46605151     0.09600
H8          H  0.60997842  0.33784574  0.52017745     0.07100
H9          H  0.53489988  0.33684538  0.06925558     0.06900
O10         O  0.81193692  0.37468104  0.29522780    -0.84500
O11         O  0.76756077  0.39334936  0.33151062    -0.81500
C12         C  0.76496034  0.41926961  0.32485549     0.99000
O13         O  0.75632480  0.42633792  0.29873174    -0.81600
O14         O  0.74461067  0.42304141  0.23704608    -0.84200
C15         C  0.76805404  0.42347289  0.22253609     1.03500
O16         O  0.78533655  0.40309378  0.22497875    -0.77000
O17         O  0.81225883  0.35650938  0.24929425    -0.77200
C18         C  0.82540437  0.36708195  0.27163819     1.03400
O19         O  0.78293008  0.32190470  0.28563752    -0.84500
O20         O  0.73634890  0.34338549  0.31635849    -0.81600
C21         C  0.71506473  0.35899846  0.32177376     0.99000
O22         O  0.71403676  0.38396241  0.31117580    -0.81600
O23         O  0.70527376  0.37761572  0.24984088    -0.84200
C24         C  0.71057383  0.37023624  0.22280422     1.03500
O25         O  0.73598832  0.36995057  0.21319316    -0.77000
O26         O  0.76069562  0.32469870  0.24215067    -0.77200
C27         C  0.77135979  0.30987747  0.26312171     1.03400
Cr28       Cr  0.77367577  0.35952062  0.30463027     1.93700
Cr29       Cr  0.73219435  0.40081951  0.27398151     1.93200
Cr30       Cr  0.77257104  0.36433840  0.23521135     1.39100
O31         O  0.75943751  0.37498173  0.27125730    -1.22300
C32         C  0.81119295  0.60009555  0.52214767     0.04000
C33         C  0.79024119  0.58637256  0.04580340    -0.12200
C34         C  0.78404837  0.55732483  0.04656184     0.01500
C35         C  0.79522157  0.54301364  0.52462761    -0.10700
C36         C  0.79950511  0.55605009  0.49631513     0.04000
C37         C  0.80749972  0.58460195  0.49509301    -0.10100
H38         H  0.79197229  0.59806345  0.06701060     0.09600
H39         H  0.78921784  0.52088719  0.52555335     0.07100
H40         H  0.81006002  0.59492349  0.47319706     0.06900
C41         C  0.75902949  0.09633090  0.26267529     0.04000
C42         C  0.76357698  0.08224186  0.29061616    -0.12200
C43         C  0.76558663  0.05251820  0.29164160     0.01500
C44         C  0.76313622  0.03710666  0.26449435    -0.10700
C45         C  0.75916444  0.05070470  0.23650725     0.04000
C46         C  0.75676603  0.08025139  0.23576961    -0.10100
H47         H  0.76611915  0.09431005  0.31133639     0.09600
H48         H  0.76540227  0.01423852  0.26494894     0.07100
H49         H  0.75442136  0.09084983  0.21405121     0.06900
O50         O  0.77817210  0.87285208  0.48220587    -0.84500
O51         O  0.82464370  0.89868340  0.45714960    -0.81500
C52         C  0.82008769  0.92398518  0.46528896     0.99000
O53         O  0.82438345  0.93120250  0.49262263    -0.81600
O54         O  0.82552271  0.92514907  0.05020895    -0.84200
C55         C  0.79983175  0.92448687  0.05889380     1.03500
O56         O  0.78423470  0.90392233  0.05155967    -0.77000
O57         O  0.76430334  0.85899287  0.01828290    -0.77200
C58         C  0.75514906  0.87004537  0.99384059     1.03400
O59         O  0.81222701  0.82369143  0.49596251    -0.84500
O60         O  0.85951622  0.85249829  0.47677030    -0.81600
C61         C  0.87838419  0.87121080  0.47374298     0.99000
O62         O  0.87447907  0.89557839  0.48529901    -0.81600
O63         O  0.86815991  0.88241012  0.04211332    -0.84200
C64         C  0.85880875  0.87342256  0.06730739     1.03500
O65         O  0.83223053  0.87090977  0.07157222    -0.77000
O66         O  0.81478815  0.82731954  0.03430974    -0.77200
C67         C  0.80855442  0.81371103  0.01052685     1.03400
Cr68       Cr  0.81908154  0.86303196  0.48069274     1.93700
Cr69       Cr  0.84507557  0.90647925  0.01486176     1.93200
Cr70       Cr  0.80032798  0.86624965  0.04153610     1.39100
O71         O  0.81931419  0.87964927  0.00993331    -1.22300
C72         C  0.04292124  0.82528397  0.25924712     0.04000
C73         C  0.02420648  0.82783779  0.23448450    -0.12200
C74         C  0.99541897  0.83442562  0.23932028     0.01500
C75         C  0.98532616  0.83809192  0.26913787    -0.10700
C76         C  0.00370189  0.83577979  0.29422226     0.04000
C77         C  0.03256183  0.82922695  0.28910607    -0.10100
H78         H  0.03230624  0.82581816  0.21139839     0.09600
H79         H  0.96306019  0.84336791  0.27275719     0.07100
H80         H  0.04724453  0.82876911  0.30803987     0.06900
C81         C  0.31539069  0.07950430  0.25069163     0.04000
C82         C  0.31318958  0.09270122  0.27929587    -0.12200
C83         C  0.30862793  0.12193597  0.28133518     0.01500
C84         C  0.30691465  0.13808068  0.25470681    -0.10700
C85         C  0.30923378  0.12535313  0.22595043     0.04000
C86         C  0.31375750  0.09595770  0.22403159    -0.10100
H87         H  0.31449272  0.08016839  0.29992437     0.09600
H88         H  0.30340740  0.16074010  0.25642196     0.07100
H89         H  0.31567094  0.08584680  0.20194807     0.06900
O90         O  0.30508977  0.31883364  0.48155116    -0.84500
O91         O  0.28290039  0.27083381  0.45714338    -0.81500
C92         C  0.26720440  0.24955486  0.45347465     0.99000
O93         O  0.24171339  0.25006836  0.46300521    -0.81600
O94         O  0.25524168  0.25536431  0.03364001    -0.84200
C95         C  0.26293337  0.26441382  0.05935197     1.03500
O96         O  0.26263880  0.29073564  0.06479087    -0.77000
O97         O  0.30756716  0.30883577  0.02983249    -0.77200
C98         C  0.31627481  0.30858840  0.50527754     1.03400
O99         O  0.25324592  0.34865625  0.46700287    -0.84500
O100        O  0.23350549  0.30136919  0.43723544    -0.81600
C101        C  0.20735591  0.30118799  0.44428076     0.99000
O102        O  0.19962262  0.29434499  0.47083253    -0.81600
O103        O  0.21000463  0.29628121  0.04155665    -0.84200
C104        C  0.20964710  0.32199341  0.05010820     1.03500
O105        O  0.22987919  0.33821967  0.04319364    -0.77000
O106        O  0.27683939  0.35913381  0.01353139    -0.77200
C107        C  0.26668369  0.36884561  0.98896066     1.03400
Cr108      Cr  0.26739878  0.30921865  0.46325699     1.93700
Cr109      Cr  0.22500796  0.27215667  0.49798025     1.93200
Cr110      Cr  0.26833883  0.32289588  0.03542836     1.39100
O111        O  0.25668029  0.30444556  0.00285179    -1.22300
C112        C  0.03797555  0.38496642  0.25313802     0.04000
C113        C  0.05472568  0.37963195  0.27887435    -0.12200
C114        C  0.08381902  0.37404044  0.27590143     0.01500
C115        C  0.09636720  0.37440116  0.24696704    -0.10700
C116        C  0.08011657  0.38005866  0.22082954     0.04000
C117        C  0.05077805  0.38568968  0.22408177    -0.10100
H118        H  0.04472742  0.37817881  0.30116535     0.09600
H119        H  0.11856334  0.36836536  0.24459263     0.07100
H120        H  0.03775727  0.38924486  0.20416238     0.06900
C121        C  0.26722834  0.58072055  0.96833151     0.04000
C122        C  0.27515270  0.59019122  0.44197056    -0.12200
C123        C  0.27953325  0.61956804  0.44019489     0.01500
C124        C  0.27448407  0.63945768  0.96766600    -0.10700
C125        C  0.27262143  0.62521480  0.99562484     0.04000
C126        C  0.26833990  0.59592014  0.99580752    -0.10100
H127        H  0.27651501  0.57728982  0.42162211     0.09600
H128        H  0.27698072  0.66226179  0.96760236     0.07100
H129        H  0.26760510  0.58475139  0.01735298     0.06900
O130        O  0.27059785  0.82318817  0.24506097    -0.84500
O131        O  0.29689346  0.77481852  0.26596831    -0.81500
C132        C  0.31384209  0.75408258  0.26736931     0.99000
O133        O  0.33680742  0.75443484  0.25208417    -0.81600
O134        O  0.31997038  0.75148430  0.19214302    -0.84200
C135        C  0.30878160  0.75878399  0.16724369     1.03500
O136        O  0.30730408  0.78470652  0.16015542    -0.77000
O137        O  0.26668629  0.80663126  0.19871939    -0.77200
C138        C  0.25529271  0.81422216  0.22347707     1.03400
O139        O  0.32416309  0.85227612  0.24876168    -0.84500
O140        O  0.34837113  0.80572414  0.27514627    -0.81600
C141        C  0.37313816  0.80515455  0.26373094     0.99000
O142        O  0.37667246  0.79813586  0.23617569    -0.81600
O143        O  0.36314241  0.79126990  0.17499379    -0.84200
C144        C  0.36214446  0.81600905  0.16392666     1.03500
O145        O  0.34267426  0.83294489  0.17185929    -0.77000
O146        O  0.30020638  0.85720043  0.20640770    -0.77200
C147        C  0.31371232  0.86798435  0.22843849     1.03400
Cr148      Cr  0.31073281  0.81323878  0.25588591     1.93700
Cr149      Cr  0.34719107  0.77589849  0.21414424     1.93200
Cr150      Cr  0.30541220  0.81912365  0.18676067     1.39100
O151        O  0.32114167  0.80275019  0.21888680    -1.22300
C152        C  0.55049550  0.84764899  0.46580362     0.04000
C153        C  0.53815534  0.84285241  0.43707714    -0.12200
C154        C  0.50855010  0.83935813  0.43449702     0.01500
C155        C  0.49137029  0.84093160  0.46069500    -0.10700
C156        C  0.49639767  0.85986702  0.99243584     0.04000
C157        C  0.52603646  0.86329954  0.99313796    -0.10100
H158        H  0.55146995  0.84150294  0.41693336     0.09600
H159        H  0.46873800  0.83703378  0.45877127     0.07100
H160        H  0.53655476  0.86687190  0.01475457     0.06900
C161        C  0.44604258  0.80543894  0.30209739    -0.13500
C162        C  0.43966453  0.82081180  0.32863626     0.16900
C163        C  0.41246414  0.83287509  0.33227496     0.03200
C164        C  0.39164677  0.82832143  0.31022500    -0.12000
C165        C  0.39738629  0.81201304  0.28403615    -0.03100
C166        C  0.42523870  0.80123425  0.27959507     0.02400
C167        C  0.46084173  0.82321487  0.35328469     0.09200
N168        N  0.40552531  0.84936219  0.35864159     0.65600
H169        H  0.37064797  0.83733188  0.31392595     0.18500
N170        N  0.43249314  0.78518999  0.25305405     0.76100
H171        H  0.46706881  0.79629059  0.29910914     0.10000
C172        C  0.46141005  0.80329845  0.37711004     0.03700
C173        C  0.47833472  0.80821851  0.40270324    -0.05000
C174        C  0.49494383  0.83279084  0.40494768    -0.23400
C175        C  0.49563769  0.85192220  0.38028386     0.13000
C176        C  0.47845099  0.84709685  0.35471460    -0.12500
N177        N  0.44391724  0.77861117  0.37619689     0.64600
H178        H  0.47777549  0.79328014  0.42138710     0.12500
N179        N  0.51211921  0.87724857  0.38176888     0.61300
H180        H  0.47795324  0.86255756  0.33653766     0.08700
O181        O  0.43253153  0.75849355  0.25426020    -0.40200
O182        O  0.44396082  0.79745170  0.23062316    -0.39400
O183        O  0.40833518  0.87591579  0.35780411    -0.39400
O184        O  0.39192760  0.83819217  0.38036278    -0.37100
O185        O  0.50103188  0.89963118  0.39223875    -0.38000
O186        O  0.53570456  0.87847066  0.36794561    -0.34100
O187        O  0.45434607  0.75550463  0.36685085    -0.35500
O188        O  0.42018841  0.77864612  0.38980949    -0.39800
C189        C  0.41638548  0.81342595  0.09958619    -0.13500
C190        C  0.42503092  0.84178900  0.09784557     0.16900
C191        C  0.41221186  0.86189569  0.11745013     0.03200
C192        C  0.39158514  0.85322943  0.13869515    -0.12000
C193        C  0.38343445  0.82468902  0.14080477    -0.03100
C194        C  0.39580183  0.80476917  0.12066303     0.02400
C195        C  0.44562666  0.84984052  0.07357006     0.09200
N196        N  0.42020185  0.89105813  0.11642028     0.65600
H197        H  0.38225064  0.86879593  0.15389254     0.18500
N198        N  0.38633919  0.77602819  0.11987635     0.76100
H199        H  0.42492413  0.79802316  0.08369895     0.10000
C200        C  0.47176626  0.83530457  0.07009747     0.03700
C201        C  0.48845281  0.83962767  0.04402658    -0.05000
C202        C  0.47986912  0.85870969  0.02131715    -0.23400
C203        C  0.45461768  0.87453820  0.02563302     0.13000
C204        C  0.43751330  0.86966830  0.05137599    -0.12500
N205        N  0.48141715  0.81571485  0.09267655     0.64600
H206        H  0.50782579  0.82741911  0.04113338     0.12500
N207        N  0.44630673  0.89588341  0.00431944     0.61300
H208        H  0.41749544  0.88087328  0.05359348     0.08700
O209        O  0.40273603  0.75644805  0.12860206    -0.40200
O210        O  0.36376817  0.76989740  0.10585015    -0.39400
O211        O  0.40285080  0.90919492  0.10630007    -0.39400
O212        O  0.44187976  0.89920741  0.13084222    -0.37100
O213        O  0.45992529  0.91885910  0.00326299    -0.38000
O214        O  0.42265530  0.89404093  0.99092311    -0.34100
O215        O  0.48274169  0.78963114  0.08650172    -0.35500
O216        O  0.49302092  0.82487762  0.11660962    -0.39800
C217        C  0.27840563  0.64560611  0.35753702    -0.13500
C218        C  0.29894362  0.66705643  0.35869478     0.16900
C219        C  0.31467129  0.67094544  0.38561508     0.03200
C220        C  0.30900470  0.65409791  0.41109889    -0.12000
C221        C  0.28707997  0.63384471  0.41088243    -0.03100
C222        C  0.27235393  0.62897507  0.38327162     0.02400
C223        C  0.30181238  0.68700454  0.33284569     0.09200
N224        N  0.33477998  0.69347666  0.38831805     0.65600
H225        H  0.32111634  0.65774817  0.43165476     0.18500
N226        N  0.25011459  0.60849742  0.38129535     0.76100
H227        H  0.26625172  0.64250081  0.33688949     0.10000
C228        C  0.32678534  0.68832588  0.31506316     0.03700
C229        C  0.32991182  0.70985779  0.29337297    -0.05000
C230        C  0.30825759  0.73009064  0.28855857    -0.23400
C231        C  0.28260142  0.72767238  0.30541546     0.13000
C232        C  0.27974762  0.70639101  0.32743631    -0.12500
N233        N  0.34885941  0.66761467  0.31833127     0.64600
H234        H  0.34958165  0.71079614  0.28043267     0.12500
N235        N  0.25925427  0.74663828  0.30066336     0.61300
H236        H  0.26036617  0.70535323  0.34088850     0.08700
O237        O  0.25432830  0.58598839  0.36637591    -0.40200
O238        O  0.22498051  0.61557360  0.38827007    -0.39400
O239        O  0.32589422  0.71835413  0.39307349    -0.39400
O240        O  0.36073506  0.68777130  0.39259793    -0.37100
O241        O  0.24033119  0.74042049  0.28146689    -0.38000
O242        O  0.25500846  0.76680438  0.31904124    -0.34100
O243        O  0.34529738  0.64311420  0.30751291    -0.35500
O244        O  0.37348939  0.67522417  0.32623491    -0.39800
C245        C  0.27981467  0.72259515  0.09624943    -0.13500
C246        C  0.28526971  0.69413791  0.10289697     0.16900
C247        C  0.29633542  0.68672206  0.13153136     0.03200
C248        C  0.30271129  0.70799528  0.15269719    -0.12000
C249        C  0.29874404  0.73682325  0.14552946    -0.03100
C250        C  0.28650042  0.74393329  0.11705321     0.02400
C251        C  0.28308108  0.67352413  0.07779143     0.09200
N252        N  0.30297753  0.65793956  0.13867419     0.65600
H253        H  0.31193906  0.70189298  0.17428300     0.18500
N254        N  0.28186170  0.77267908  0.10811173     0.76100
H255        H  0.27151138  0.72837828  0.07411155     0.10000
C256        C  0.25966795  0.65523175  0.07469374     0.03700
C257        C  0.25688119  0.63889098  0.04814107    -0.05000
C258        C  0.27713004  0.64077454  0.02453746    -0.23400
C259        C  0.30120350  0.65823677  0.02847366     0.13000
C260        C  0.30383284  0.67451281  0.05485355    -0.12500
N261        N  0.23793594  0.65413802  0.09753858     0.64600
H262        H  0.23835892  0.62551451  0.04545766     0.12500
N263        N  0.32338338  0.65938618  0.00607702     0.61300
H264        H  0.32202561  0.68838879  0.05729893     0.08700
O265        O  0.25708846  0.78303106  0.10958727    -0.40200
O266        O  0.30079024  0.78540810  0.09295912    -0.39400
O267        O  0.32740879  0.64829709  0.13239145    -0.39400
O268        O  0.28707204  0.64442493  0.15673101    -0.37100
O269        O  0.34349862  0.64305477  0.50307843    -0.38000
O270        O  0.32771499  0.68210227  0.99167540    -0.34100
O271        O  0.21669655  0.67048659  0.09570214    -0.35500
O272        O  0.23731996  0.63364499  0.11595900    -0.39800
C273        C  0.25438812  0.44229502  0.95505423    -0.13500
C274        C  0.26906410  0.45910740  0.97601773     0.16900
C275        C  0.28295988  0.44640955  0.00075713     0.03200
C276        C  0.28205185  0.41706708  0.00431096    -0.12000
C277        C  0.26704147  0.39988077  0.98367519    -0.03100
C278        C  0.25308282  0.41285437  0.95873160     0.02400
C279        C  0.26825258  0.49008678  0.97296272     0.09200
N280        N  0.29751374  0.46319231  0.02285116     0.65600
H281        H  0.29299275  0.40780506  0.02358635     0.18500
N282        N  0.23194316  0.39480107  0.43824076     0.76100
H283        H  0.24334010  0.45216140  0.93618635     0.10000
C284        C  0.28864500  0.50457575  0.95545693     0.03700
C285        C  0.28749987  0.53408702  0.95357309    -0.05000
C286        C  0.26617404  0.54945421  0.96896000    -0.22600
C287        C  0.24371034  0.53302953  0.48670024     0.13000
C288        C  0.24266606  0.50345744  0.48938269    -0.12500
N289        N  0.31092023  0.48963452  0.93997844     0.64600
H290        H  0.30377818  0.54506870  0.94071265     0.12500
N291        N  0.22044167  0.54962252  0.49804474     0.61300
H292        H  0.22451284  0.49366286  0.50035831     0.08700
O293        O  0.24690780  0.39056572  0.91186934    -0.40200
O294        O  0.20576726  0.39006325  0.44231428    -0.39400
O295        O  0.28421165  0.47218072  0.04598542    -0.39400
O296        O  0.32429606  0.46513100  0.02179218    -0.37100
O297        O  0.21710351  0.55263787  0.52642113    -0.38000
O298        O  0.20065701  0.55680257  0.48023745    -0.34100
O299        O  0.30911790  0.48547989  0.91163926    -0.35500
O300        O  0.33444452  0.48574324  0.95316185    -0.39800
C301        C  0.15963263  0.37037055  0.09471556    -0.13500
C302        C  0.14885771  0.35147939  0.11651719     0.16900
C303        C  0.15684246  0.32270663  0.11512358     0.03200
C304        C  0.17542005  0.31329172  0.09221427    -0.12000
C305        C  0.18695308  0.33227129  0.07090785    -0.03100
C306        C  0.17863839  0.36105963  0.07206605     0.02400
C307        C  0.12953993  0.36202232  0.14084136     0.09200
N308        N  0.14782467  0.30319456  0.13808255     0.65600
H309        H  0.18206357  0.29131993  0.09216813     0.18500
N310        N  0.18883818  0.38097593  0.05009598     0.76100
H311        H  0.15330788  0.39241906  0.09534572     0.10000
C312        C  0.13881640  0.38220044  0.16220700     0.03700
C313        C  0.12110018  0.38984532  0.18657163    -0.05000
C314        C  0.09428562  0.37720008  0.19060738    -0.23400
C315        C  0.08423566  0.35838082  0.16802126     0.13000
C316        C  0.10190748  0.35100678  0.14338199    -0.12500
N317        N  0.16713703  0.39314902  0.16105103     0.64600
H318        H  0.12913111  0.40433432  0.20361060     0.12500
N319        N  0.05710255  0.34498959  0.17079687     0.61300
H320        H  0.09443665  0.33582843  0.12676666     0.08700
O321        O  0.17584742  0.38382639  0.02516254    -0.40200
O322        O  0.20718051  0.39908039  0.05775365    -0.39400
O323        O  0.13124863  0.28323158  0.13120480    -0.39400
O324        O  0.16012088  0.30303015  0.16360987    -0.37100
O325        O  0.03627176  0.35452435  0.15583369    -0.38000
O326        O  0.05550124  0.32066182  0.18253920    -0.34100
O327        O  0.17112300  0.41879204  0.15425683    -0.35500
O328        O  0.18741300  0.37871188  0.17179309    -0.39800
C329        C  0.14160345  0.32911193  0.40343431    -0.13500
C330        C  0.14996413  0.32545543  0.37296218     0.16900
C331        C  0.17603057  0.31217882  0.36619423     0.03200
C332        C  0.19395093  0.30372904  0.38982628    -0.12000
C333        C  0.18629772  0.30827871  0.42046842    -0.03100
C334        C  0.15958695  0.32069754  0.42723922     0.02400
C335        C  0.13258865  0.33794464  0.34850357     0.09200
N336        N  0.18464860  0.30736612  0.33534074     0.65600
H337        H  0.21408625  0.29384882  0.38412144     0.18500
N338        N  0.15142820  0.32706795  0.45789836     0.76100
H339        H  0.12170881  0.33965165  0.40869575     0.10000
C340        C  0.10647635  0.32595690  0.33992817     0.03700
C341        C  0.09031344  0.33872666  0.31701487    -0.05000
C342        C  0.10009629  0.36318655  0.30214236    -0.23400
C343        C  0.12623578  0.37524390  0.31086148     0.13000
C344        C  0.14225172  0.36258862  0.33400095    -0.12500
N345        N  0.09692069  0.30001751  0.35314263     0.64600
H346        H  0.07062963  0.32889678  0.30997529     0.12500
N347        N  0.13640741  0.40064138  0.29692188     0.61300
H348        H  0.16218820  0.37204527  0.34079601     0.08700
O349        O  0.15892590  0.35026211  0.46962382    -0.40200
O350        O  0.13261288  0.31234411  0.47093768    -0.39400
O351        O  0.20310940  0.32317162  0.32323175    -0.39400
O352        O  0.17730585  0.28486764  0.32201912    -0.37100
O353        O  0.12819416  0.42434559  0.30701828    -0.38000
O354        O  0.15705925  0.39951060  0.27845274    -0.34100
O355        O  0.07586949  0.30011322  0.37111021    -0.35500
O356        O  0.10644713  0.27677737  0.34309067    -0.39800
C357        C  0.28265604  0.15635858  0.15124938    -0.13500
C358        C  0.29751640  0.18215515  0.15027980     0.16900
C359        C  0.31751767  0.18810054  0.17331699     0.03200
C360        C  0.32183133  0.16874074  0.19696200    -0.12000
C361        C  0.30639113  0.14335636  0.19842974    -0.03100
C362        C  0.28691936  0.13700602  0.17502216     0.02400
C363        C  0.29000176  0.20350017  0.12668045     0.09200
N364        N  0.33344100  0.21385411  0.17326846     0.65600
H365        H  0.33703685  0.17378116  0.21456286     0.18500
N366        N  0.26969043  0.11212678  0.17625966     0.76100
H367        H  0.26659440  0.15185346  0.13442053     0.10000
C368        C  0.28893623  0.19637554  0.09549308     0.03700
C369        C  0.27977984  0.21641571  0.07417107    -0.05000
C370        C  0.27197712  0.24396948  0.08313060    -0.23400
C371        C  0.27326556  0.25120440  0.11438236     0.13000
C372        C  0.28185831  0.23091634  0.13577308    -0.12500
N373        N  0.29772998  0.16905149  0.08494161     0.64600
H374        H  0.27935771  0.21046801  0.05039322     0.12500
N375        N  0.26518090  0.27872154  0.12503210     0.61300
H376        H  0.28152406  0.23646329  0.15962699     0.08700
O377        O  0.24813557  0.11153158  0.19352678    -0.40200
O378        O  0.27343971  0.09264134  0.15693350    -0.39400
O379        O  0.32903479  0.23206630  0.19385221    -0.39400
O380        O  0.35520777  0.21595908  0.15647537    -0.37100
O381        O  0.23958160  0.28357705  0.13227350    -0.38000
O382        O  0.28418499  0.29629255  0.13228019    -0.34100
O383        O  0.27969245  0.15258724  0.07323574    -0.35500
O384        O  0.32393862  0.16355684  0.08222889    -0.39800
C385        C  0.27816231  0.16676735  0.34494178    -0.13500
C386        C  0.29991036  0.16542723  0.36664258     0.16900
C387        C  0.32437592  0.14886516  0.36072030     0.03200
C388        C  0.32672884  0.13424368  0.33296094    -0.12000
C389        C  0.30494708  0.13587721  0.31118738    -0.03100
C390        C  0.28037175  0.15208451  0.31750571     0.02400
C391        C  0.29646186  0.18311401  0.39415655     0.09200
N392        N  0.34660177  0.14628422  0.38273362     0.65600
H393        H  0.34567672  0.12180363  0.32824898     0.18500
N394        N  0.25721866  0.15339662  0.29648616     0.76100
H395        H  0.25933361  0.17953835  0.34928212     0.10000
C396        C  0.31262143  0.20783152  0.39809378     0.03700
C397        C  0.30358494  0.22844468  0.41897069    -0.05000
C398        C  0.27826727  0.22496760  0.43588792    -0.23400
C399        C  0.26341907  0.19909886  0.43364262     0.13000
C400        C  0.27266053  0.17840961  0.41292073    -0.12500
N401        N  0.33654513  0.21393031  0.37892726     0.64600
H402        H  0.31492932  0.24758461  0.42003028     0.12500
N403        N  0.23811439  0.19390637  0.45093106     0.61300
H404        H  0.26020418  0.15953602  0.41001054     0.08700
O405        O  0.25197582  0.17624204  0.28265866    -0.40200
O406        O  0.23910238  0.13372846  0.29613166    -0.39400
O407        O  0.34273690  0.13103949  0.40598229    -0.39400
O408        O  0.37149442  0.15421019  0.37602357    -0.37100
O409        O  0.21411356  0.19857706  0.43905915    -0.38000
O410        O  0.23958730  0.17953527  0.47510979    -0.34100
O411        O  0.33240659  0.22283351  0.35219092    -0.35500
O412        O  0.36090148  0.21649901  0.39065330    -0.39800
C413        C  0.30185211  0.94724659  0.21876789    -0.13500
C414        C  0.32304480  0.95827437  0.23769726     0.16900
C415        C  0.34166328  0.93968824  0.25288904     0.03200
C416        C  0.33856560  0.91037545  0.24922089    -0.12000
C417        C  0.31685967  0.89915606  0.23079691    -0.03100
C418        C  0.29850438  0.91802158  0.21527664     0.02400
C419        C  0.32335730  0.98913061  0.24311347     0.09200
N420        N  0.36277969  0.95017019  0.27332877     0.65600
H421        H  0.35289785  0.89636467  0.26129895     0.18500
N422        N  0.27529468  0.90797759  0.19732896     0.76100
H423        H  0.28723419  0.96146523  0.20735310     0.10000
C424        C  0.34396094  0.00690446  0.22976968     0.03700
C425        C  0.34136633  0.03637683  0.23279498    -0.05000
C426        C  0.31828570  0.04835999  0.24873848    -0.23400
C427        C  0.29797849  0.03044343  0.26246662     0.13000
C428        C  0.30080601  0.00108539  0.25976905    -0.12500
N429        N  0.36667321  0.99544690  0.21176145     0.64600
H430        H  0.35705153  0.04994560  0.22219444     0.12500
N431        N  0.27327330  0.04178422  0.27730314     0.61300
H432        H  0.28467918  0.98754481  0.26965237     0.08700
O433        O  0.27724241  0.90810304  0.16863466    -0.40200
O434        O  0.25139842  0.90379111  0.20977838    -0.39400
O435        O  0.35596620  0.95560167  0.30057295    -0.39400
O436        O  0.38877390  0.94831631  0.26615317    -0.37100
O437        O  0.27007395  0.03866158  0.30567280    -0.38000
O438        O  0.25280127  0.05091313  0.26151254    -0.34100
O439        O  0.36230394  0.98940743  0.18415354    -0.35500
O440        O  0.39190808  0.99674374  0.22143647    -0.39800
C441        C  0.11913493  0.79781429  0.26138129    -0.13500
C442        C  0.13333963  0.81853090  0.24415345     0.16900
C443        C  0.11745229  0.84098595  0.23141859     0.03200
C444        C  0.08795649  0.84234546  0.23597749    -0.12000
C445        C  0.07386077  0.82190801  0.25359840    -0.03100
C446        C  0.08965522  0.79946152  0.26634781     0.02400
C447        C  0.16454860  0.81605344  0.23891733     0.09200
N448        N  0.13113200  0.86323253  0.21488549     0.65600
H449        H  0.07612817  0.85992503  0.22651364     0.18500
N450        N  0.07590714  0.77764423  0.28342841     0.76100
H451        H  0.13085860  0.78007078  0.27056503     0.10000
C452        C  0.18377362  0.81385956  0.26338911     0.03700
C453        C  0.21308151  0.81272731  0.25768740    -0.05000
C454        C  0.22393609  0.81345259  0.22778164    -0.23400
C455        C  0.20460605  0.81422405  0.20320645     0.13000
C456        C  0.17522343  0.81560273  0.20895053    -0.12500
N457        N  0.17397344  0.81358631  0.29427117     0.64600
H458        H  0.22740325  0.81157241  0.27686658     0.12500
N459        N  0.21432969  0.81415224  0.17231779     0.61300
H460        H  0.16070301  0.81637830  0.18994155     0.08700
O461        O  0.08023187  0.77565171  0.31171229    -0.40200
O462        O  0.06372206  0.75766976  0.26956936    -0.39400
O463        O  0.12660032  0.86603187  0.18671398    -0.39400
O464        O  0.14381499  0.88260935  0.22920779    -0.37100
O465        O  0.21418326  0.79131472  0.15736966    -0.38000
O466        O  0.21781254  0.83732719  0.15852132    -0.34100
O467        O  0.17570379  0.79104896  0.30960688    -0.35500
O468        O  0.16869369  0.83667887  0.30767187    -0.39800
C469        C  0.68678555  0.87925239  0.47500512    -0.13500
C470        C  0.66419661  0.87057654  0.97988045     0.16900
C471        C  0.67620626  0.85820119  0.00594470     0.03200
C472        C  0.70569216  0.85848038  0.00995725    -0.12000
C473        C  0.72388625  0.87103341  0.98830124    -0.03100
C474        C  0.71626604  0.88155812  0.47909464     0.02400
C475        C  0.63318415  0.86928346  0.97469043     0.09200
N476        N  0.65865750  0.84502843  0.02848323     0.65600
H477        H  0.71429525  0.84859739  0.03019500     0.18500
N478        N  0.73083708  0.90507386  0.46582081     0.76100
H479        H  0.67578275  0.89490587  0.46137350     0.10000
C480        C  0.61489959  0.89076477  0.98543423     0.03700
C481        C  0.58541230  0.88799129  0.98204010    -0.05000
C482        C  0.57373568  0.86402298  0.96789905    -0.23400
C483        C  0.60103903  0.82951678  0.45870400     0.13000
C484        C  0.63017813  0.83189321  0.46503819    -0.12500
N485        N  0.62601935  0.91531981  0.00016031     0.64600
H486        H  0.57151063  0.90456789  0.99068639     0.12500
N487        N  0.59126664  0.80524441  0.44237956     0.61300
H488        H  0.64475870  0.81587633  0.45656106     0.08700
O489        O  0.73922948  0.90365026  0.43849526    -0.40200
O490        O  0.73034947  0.92874331  0.47918356    -0.39400
O491        O  0.65657123  0.81840136  0.02898810    -0.39400
O492        O  0.64993104  0.85930710  0.05100220    -0.37100
O493        O  0.59510846  0.80385156  0.41393011    -0.38000
O494        O  0.58471378  0.78312665  0.45688321    -0.34100
O495        O  0.62885078  0.93798897  0.98527251    -0.35500
O496        O  0.62831402  0.91574424  0.02879958    -0.39800
C497        C  0.89078427  0.84826809  0.14259219    -0.13500
C498        C  0.91868992  0.85839336  0.13996962     0.16900
C499        C  0.92691563  0.87303254  0.11349610     0.03200
C500        C  0.90722071  0.87741685  0.09008256    -0.12000
C501        C  0.87910903  0.86734787  0.09245691    -0.03100
C502        C  0.87099030  0.85255785  0.11918400     0.02400
C503        C  0.93909738  0.85282725  0.16483609     0.09200
N504        N  0.95539997  0.88303382  0.10977413     0.65600
H505        H  0.91404346  0.88885759  0.06999812     0.18500
N506        N  0.84302463  0.84112981  0.12271823     0.76100
H507        H  0.88441391  0.83680282  0.16283754     0.10000
C508        C  0.94518671  0.87357871  0.18691077     0.03700
C509        C  0.96371645  0.86720002  0.21088072    -0.05000
C510        C  0.97630876  0.84028175  0.21330596    -0.23400
C511        C  0.97033103  0.81958104  0.19109413     0.13000
C512        C  0.95183297  0.82599897  0.16704180    -0.12500
N513        N  0.93204840  0.90090066  0.18577654     0.64600
H514        H  0.96817769  0.88328385  0.22781536     0.12500
N515        N  0.98168535  0.79157339  0.19359335     0.61300
H516        H  0.94696386  0.80984771  0.15031888     0.08700
O517        O  0.82513368  0.85362410  0.13960149    -0.40200
O518        O  0.83789234  0.81639284  0.11336989    -0.39400
O519        O  0.97388750  0.86703730  0.09777197    -0.39400
O520        O  0.96049263  0.90913201  0.11246506    -0.37100
O521        O  0.96933808  0.77371376  0.21040611    -0.38000
O522        O  0.00102700  0.78346545  0.17550321    -0.34100
O523        O  0.90870070  0.90495518  0.19947422    -0.35500
O524        O  0.94630470  0.92191804  0.17678389    -0.39800
C525        C  0.98159259  0.82954114  0.37765879    -0.13500
C526        C  0.96348568  0.85312665  0.38054935     0.16900
C527        C  0.96157687  0.87256514  0.35633219     0.03200
C528        C  0.97597942  0.86713742  0.32899236    -0.12000
C529        C  0.99254041  0.84251185  0.32517587    -0.03100
C530        C  0.99628952  0.82421404  0.35030880     0.02400
C531        C  0.94453781  0.85584733  0.40750577     0.09200
N532        N  0.94365180  0.89702006  0.35847732     0.65600
H533        H  0.97345811  0.88182341  0.31026977     0.18500
N534        N  0.01372652  0.79944211  0.34805130     0.76100
H535        H  0.98352482  0.81471850  0.39631785     0.10000
C536        C  0.92314461  0.83569260  0.41297582     0.03700
C537        C  0.90287164  0.84045370  0.43580597    -0.05000
C538        C  0.90339840  0.86514868  0.45378467    -0.23400
C539        C  0.92612642  0.88438438  0.44971122     0.13000
C540        C  0.94631685  0.87972212  0.42649514    -0.12500
N541        N  0.92037232  0.81120060  0.39405283     0.64600
H542        H  0.88589314  0.82552521  0.43814629     0.12500
N543        N  0.92899270  0.90882428  0.46865865     0.61300
H544        H  0.96303038  0.89496960  0.42290997     0.08700
O545        O  0.03786106  0.79919830  0.36060932    -0.40200
O546        O  0.00289900  0.77643481  0.33927434    -0.39400
O547        O  0.95446830  0.92081196  0.36440520    -0.39400
O548        O  0.91816138  0.89568966  0.34960187    -0.37100
O549        O  0.94318422  0.90711243  0.49295779    -0.38000
O550        O  0.92197251  0.93285584  0.45855432    -0.34100
O551        O  0.92820262  0.78735638  0.40399341    -0.35500
O552        O  0.90529597  0.81249446  0.37034792    -0.39800
C553        C  0.74422946  0.01833375  0.15849157    -0.13500
C554        C  0.76761879  0.99996644  0.15563029     0.16900
C555        C  0.78807048  0.99877211  0.17893739     0.03200
C556        C  0.78487215  0.01564970  0.20477352    -0.12000
C557        C  0.76139925  0.03390099  0.20807054    -0.03100
C558        C  0.74104704  0.03544716  0.18448674     0.02400
C559        C  0.77197273  0.98332408  0.12754943     0.09200
N560        N  0.81221980  0.98034679  0.17666266     0.65600
H561        H  0.80094548  0.01455316  0.22235880     0.18500
N562        N  0.71690887  0.05384949  0.18676817     0.76100
H563        H  0.72865528  0.01957160  0.14043006     0.10000
C564        C  0.75586830  0.95900828  0.12124404     0.03700
C565        C  0.76427662  0.94090106  0.09750817    -0.05000
C566        C  0.78882554  0.94660771  0.07999775    -0.23400
C567        C  0.80347136  0.97239119  0.08499764     0.13000
C568        C  0.79481876  0.99040733  0.10856840    -0.12500
N569        N  0.73208701  0.95151150  0.13994818     0.64600
H570        H  0.75243269  0.92158095  0.09395343     0.12500
N571        N  0.82739497  0.98068936  0.06685991     0.61300
H572        H  0.80689325  0.00943688  0.11303701     0.08700
O573        O  0.71638922  0.07647391  0.17148373    -0.40200
O574        O  0.69422779  0.04490513  0.19883880    -0.39400
O575        O  0.83634359  0.99041672  0.17012686    -0.39400
O576        O  0.81032633  0.95511153  0.18585987    -0.37100
O577        O  0.82551680  0.00296325  0.05113563    -0.38000
O578        O  0.85180259  0.97135451  0.07354571    -0.34100
O579        O  0.70712281  0.95608343  0.13056383    -0.35500
O580        O  0.73587262  0.93644119  0.16332882    -0.39800
C581        C  0.79021382  0.98953225  0.42513710    -0.13500
C582        C  0.79270908  0.98128692  0.39454100     0.16900
C583        C  0.80450241  0.95461874  0.38744313     0.03200
C584        C  0.81298533  0.93651566  0.41090215    -0.12000
C585        C  0.81059508  0.94454867  0.44172475    -0.03100
C586        C  0.79900671  0.97146419  0.44871169     0.02400
C587        C  0.78363287  0.00100907  0.37022397     0.09200
N588        N  0.80938016  0.94614710  0.35652647     0.65600
H589        H  0.82223905  0.91627171  0.40474783     0.18500
N590        N  0.79600154  0.98091681  0.47945609     0.76100
H591        H  0.78128570  0.01006229  0.43073030     0.10000
C592        C  0.76056178  0.99469542  0.35099598     0.03700
C593        C  0.75438081  0.01250296  0.32642927    -0.05000
C594        C  0.77084014  0.03670643  0.32041792    -0.23400
C595        C  0.79328687  0.04355169  0.34047210     0.13000
C596        C  0.79936484  0.02575301  0.36519612    -0.12500
N597        N  0.74305821  0.97044577  0.35627991     0.64600
H598        H  0.73672354  0.00720469  0.31169646     0.12500
N599        N  0.81135691  0.06729404  0.33497723     0.61300
H600        H  0.81722826  0.03063955  0.37981497     0.08700
O601        O  0.81232231  0.00002279  0.48919855    -0.40200
O602        O  0.77360816  0.97510134  0.49413858    -0.39400
O603        O  0.82911344  0.95770480  0.34145221    -0.39400
O604        O  0.79853533  0.92347622  0.34677421    -0.37100
O605        O  0.83311549  0.06427816  0.31829124    -0.38000
O606        O  0.80923818  0.08886340  0.35185271    -0.34100
O607        O  0.72512265  0.97092662  0.37777758    -0.35500
O608        O  0.74132665  0.95145371  0.33611508    -0.39800
C609        C  0.82832588  0.73511470  0.49729683    -0.13500
C610        C  0.80682133  0.72243058  0.01499540     0.16900
C611        C  0.82462232  0.73810086  0.03441583     0.03200
C612        C  0.82509226  0.76775338  0.03248211    -0.12000
C613        C  0.80825890  0.78223153  0.01104977    -0.03100
C614        C  0.82958009  0.76463013  0.49583493     0.02400
C615        C  0.80448412  0.69122736  0.01729142     0.09200
N616        N  0.84191772  0.72423079  0.05660428     0.65600
H617        H  0.83863152  0.77946304  0.04785096     0.18500
N618        N  0.83879277  0.77758867  0.46811094     0.76100
H619        H  0.83302334  0.72275604  0.47710245     0.10000
C620        C  0.78064664  0.67868372  0.03130281     0.03700
C621        C  0.77791076  0.64915623  0.03169904    -0.05000
C622        C  0.81556934  0.63101219  0.52123678    -0.23400
C623        C  0.83785619  0.64415264  0.53739370     0.13000
C624        C  0.82527096  0.67388677  0.00369556    -0.12500
N625        N  0.75880768  0.69577522  0.04479450     0.64600
H626        H  0.75936565  0.63984882  0.04236807     0.12500
N627        N  0.85990116  0.62770785  0.55124838     0.61300
H628        H  0.85643290  0.68379208  0.55097844     0.08700
O629        O  0.82165543  0.77992819  0.44617043    -0.40200
O630        O  0.86510634  0.78079651  0.46339317    -0.39400
O631        O  0.86822823  0.72106377  0.05162434    -0.39400
O632        O  0.83215606  0.72009299  0.08305956    -0.37100
O633        O  0.86193574  0.62689166  0.57990583    -0.38000
O634        O  0.87982019  0.61783051  0.53497232    -0.34100
O635        O  0.73692979  0.70206851  0.02958815    -0.35500
O636        O  0.75948098  0.70112567  0.07296278    -0.39800
C637        C  0.90301954  0.35710363  0.24932815    -0.13500
C638        C  0.91616610  0.37777773  0.26727814     0.16900
C639        C  0.89943408  0.39505659  0.28646929     0.03200
C640        C  0.86992052  0.39107345  0.28786234    -0.12000
C641        C  0.85668544  0.37018424  0.27007229    -0.03100
C642        C  0.87358377  0.35314257  0.25053265     0.02400
C643        C  0.94742812  0.38063662  0.26548099     0.09200
N644        N  0.91216999  0.41629688  0.30512559     0.65600
H645        H  0.85733044  0.40449745  0.30274744     0.18500
N646        N  0.86139574  0.33118028  0.23237384     0.76100
H647        H  0.91573248  0.34389542  0.23433866     0.10000
C648        C  0.96520602  0.35784526  0.27366051     0.03700
C649        C  0.99453470  0.35979624  0.26913764    -0.05000
C650        C  0.00671115  0.38429617  0.25666404    -0.23400
C651        C  0.98903904  0.40726358  0.24869206     0.13000
C652        C  0.95949408  0.40529362  0.25314250    -0.12500
N653        N  0.95374226  0.33265841  0.28687997     0.64600
H654        H  0.00793150  0.34205399  0.27542508     0.12500
N655        N  0.00080547  0.43281541  0.23673474     0.61300
H656        H  0.94593439  0.42278629  0.24654033     0.08700
O657        O  0.86007390  0.30630829  0.24276955    -0.40200
O658        O  0.85678739  0.33548528  0.20443680    -0.39400
O659        O  0.90972896  0.44204052  0.29786581    -0.39400
O660        O  0.92102979  0.40984802  0.33133779    -0.37100
O661        O  0.99986293  0.43746720  0.20844049    -0.38000
O662        O  0.00714986  0.45269959  0.25467344    -0.34100
O663        O  0.95297773  0.31012668  0.27141834    -0.35500
O664        O  0.94909236  0.33171183  0.31520856    -0.39800
C665        C  0.77704971  0.23150629  0.28323591    -0.13500
C666        C  0.76616020  0.21875372  0.25695500     0.16900
C667        C  0.75792544  0.23594657  0.23220865     0.03200
C668        C  0.76042157  0.26547601  0.23442264    -0.12000
C669        C  0.77080776  0.27841483  0.26106868    -0.03100
C670        C  0.77957672  0.26090418  0.28551604     0.02400
C671        C  0.76321850  0.18750818  0.25667987     0.09200
N672        N  0.74567578  0.22396626  0.20534363     0.65600
H673        H  0.75348992  0.27832295  0.21541263     0.18500
N674        N  0.79086179  0.27243459  0.31304552     0.76100
H675        H  0.78367656  0.21845826  0.30223875     0.10000
C676        C  0.77834068  0.17024603  0.23592705     0.03700
C677        C  0.77606469  0.14073327  0.23794294    -0.05000
C678        C  0.75936512  0.12782626  0.26071728    -0.23400
C679        C  0.74423252  0.14525498  0.28142282     0.13000
C680        C  0.74624904  0.17475260  0.27916132    -0.12500
N681        N  0.79759269  0.18217645  0.21410295     0.64600
H682        H  0.78854095  0.12780419  0.22243404     0.12500
N683        N  0.72635771  0.13348659  0.30457820     0.61300
H684        H  0.73455621  0.18785954  0.29520737     0.08700
O685        O  0.81724854  0.27705653  0.31496023    -0.40200
O686        O  0.77589240  0.27223728  0.33698470    -0.39400
O687        O  0.72082713  0.21391260  0.20650046    -0.39400
O688        O  0.75701975  0.22863186  0.17970809    -0.37100
O689        O  0.70127265  0.12625683  0.29802605    -0.38000
O690        O  0.73330999  0.13603813  0.33220530    -0.34100
O691        O  0.81979817  0.19452268  0.22318639    -0.35500
O692        O  0.79532338  0.17575500  0.18628435    -0.39800
C693        C  0.75693209  0.51016569  0.11086122    -0.13500
C694        C  0.78002031  0.51079490  0.13105636     0.16900
C695        C  0.80372645  0.52781673  0.12402367     0.03200
C696        C  0.80419507  0.54356961  0.09692821    -0.12000
C697        C  0.78150443  0.54225298  0.07619300    -0.03100
C698        C  0.75752676  0.52557094  0.08354875     0.02400
C699        C  0.78004347  0.49106851  0.15738597     0.09200
N700        N  0.82768785  0.52893488  0.14392880     0.65600
H701        H  0.82276349  0.55614695  0.09159080     0.18500
N702        N  0.73358180  0.52407474  0.06360115     0.76100
H703        H  0.73873226  0.49696873  0.11589234     0.10000
C704        C  0.76048008  0.49398411  0.18159461     0.03700
C705        C  0.75773305  0.47232032  0.20328125    -0.05000
C706        C  0.77419209  0.44737567  0.20127866    -0.23400
C707        C  0.79470394  0.44515282  0.17759413     0.13000
C708        C  0.79747881  0.46694879  0.15609612    -0.12500
N709        N  0.74297751  0.51869033  0.18419681     0.64600
H710        H  0.74216723  0.47480023  0.22132010     0.12500
N711        N  0.81131649  0.42002052  0.17342911     0.61300
H712        H  0.81223962  0.46430172  0.13731777     0.08700
O713        O  0.72978597  0.50207797  0.04778890    -0.40200
O714        O  0.71341680  0.54158031  0.06677530    -0.39400
O715        O  0.84963491  0.51448399  0.13778680    -0.39400
O716        O  0.82903833  0.54824127  0.16376681    -0.37100
O717        O  0.83698826  0.41958802  0.18182038    -0.38000
O718        O  0.80205702  0.40045016  0.15659269    -0.34100
O719        O  0.71735475  0.51781498  0.17569410    -0.35500
O720        O  0.75151152  0.53946490  0.19975092    -0.39800
C721        C  0.81073626  0.51255119  0.42468525    -0.13500
C722        C  0.78266941  0.50469573  0.41784620     0.16900
C723        C  0.76008217  0.51526428  0.43592189     0.03200
C724        C  0.76596760  0.53291648  0.46077443    -0.12000
C725        C  0.79408960  0.53993445  0.46815143    -0.03100
C726        C  0.81659062  0.52995443  0.44973325     0.02400
C727        C  0.77790023  0.48337396  0.39364457     0.09200
N728        N  0.73134852  0.50664490  0.43076411     0.65600
H729        H  0.74862665  0.54029070  0.47510071     0.18500
N730        N  0.84553707  0.53571626  0.45742491     0.76100
H731        H  0.82822570  0.50425672  0.41117253     0.10000
C732        C  0.76381989  0.48998171  0.36626399     0.03700
C733        C  0.76008260  0.46894425  0.34404302    -0.05000
C734        C  0.77042695  0.44123482  0.34845574    -0.23400
C735        C  0.78473186  0.43486069  0.37599638     0.13000
C736        C  0.78819734  0.45584267  0.39819390    -0.12500
N737        N  0.75412585  0.51814489  0.36021527     0.64600
H738        H  0.74910294  0.47441059  0.32321619     0.12500
N739        N  0.79646865  0.40740093  0.38165781     0.61300
H740        H  0.79916185  0.45064151  0.41912804     0.08700
O741        O  0.85826782  0.51990764  0.47616654    -0.40200
O742        O  0.85964395  0.55316096  0.44174175    -0.39400
O743        O  0.72330781  0.48266102  0.44001467    -0.39400
O744        O  0.71291200  0.52492909  0.42353748    -0.37100
O745        O  0.82142679  0.40171780  0.37271868    -0.38000
O746        O  0.78408550  0.39089243  0.39998603    -0.34100
O747        O  0.77197616  0.53699722  0.35323324    -0.35500
O748        O  0.72794253  0.52276021  0.35601463    -0.39800
C749        C  0.63758276  0.35869980  0.18637488    -0.13500
C750        C  0.64579522  0.35279322  0.15627860     0.16900
C751        C  0.67483623  0.35150602  0.14864189     0.03200
C752        C  0.69527326  0.35629681  0.17095121    -0.12000
C753        C  0.68746538  0.36297754  0.20112970    -0.03100
C754        C  0.65814355  0.36366501  0.20892052     0.02400
C755        C  0.62422113  0.34927606  0.13232057     0.09200
N756        N  0.68389036  0.34679217  0.11787799     0.65600
H757        H  0.71746200  0.35564858  0.16414125     0.18500
N758        N  0.64882476  0.36950330  0.23934839     0.76100
H759        H  0.61518211  0.35965080  0.19229147     0.10000
C760        C  0.61774454  0.32229104  0.12055262     0.03700
C761        C  0.60123864  0.31999991  0.09419089    -0.05000
C762        C  0.59095706  0.34433758  0.07965203    -0.23400
C763        C  0.59626868  0.37119754  0.09220168     0.13000
C764        C  0.61299789  0.37353806  0.11836486    -0.12500
N765        N  0.62838704  0.29718168  0.13473590     0.64600
H766        H  0.59708519  0.29928031  0.08456702     0.12500
N767        N  0.58573407  0.39622967  0.07777578     0.61300
H768        H  0.61813546  0.39434735  0.12717434     0.08700
O769        O  0.64639788  0.34944421  0.25815955    -0.40200
O770        O  0.63831374  0.39343013  0.24572250    -0.39400
O771        O  0.68348319  0.36706852  0.09916432    -0.39400
O772        O  0.69723900  0.32439338  0.11113164    -0.37100
O773        O  0.55964497  0.40251814  0.07976111    -0.38000
O774        O  0.60175966  0.41023893  0.06028960    -0.34100
O775        O  0.61358973  0.28504126  0.15489257    -0.35500
O776        O  0.64946979  0.28436555  0.12322600    -0.39800
C777        C  0.67181509  0.31966399  0.38220581    -0.13500
C778        C  0.64713747  0.33643583  0.38325245     0.16900
C779        C  0.64374570  0.35838829  0.36187003     0.03200
C780        C  0.66571701  0.36456187  0.34141080    -0.12000
C781        C  0.69137870  0.34911715  0.34159770    -0.03100
C782        C  0.69389148  0.32571765  0.36159533     0.02400
C783        C  0.62760151  0.33407677  0.40971514     0.09200
N784        N  0.61832164  0.37512423  0.36123308     0.65600
H785        H  0.66280859  0.38199596  0.32572451     0.18500
N786        N  0.71923204  0.30891262  0.36276354     0.76100
H787        H  0.67482570  0.30300765  0.39879372     0.10000
C788        C  0.61283495  0.30894907  0.41670687     0.03700
C789        C  0.59515893  0.30791783  0.44255710    -0.05000
C790        C  0.59253848  0.33144876  0.46199260    -0.23400
C791        C  0.60778350  0.35633422  0.45524943     0.13000
C792        C  0.62509703  0.35743372  0.42933462    -0.12500
N793        N  0.61567026  0.28435721  0.39792484     0.64600
H794        H  0.58391102  0.28856476  0.44781176     0.12500
N795        N  0.60556321  0.38085088  0.47425817     0.61300
H796        H  0.63691584  0.37657648  0.42467085     0.08700
O797        O  0.71798470  0.28293451  0.35614324    -0.40200
O798        O  0.74078371  0.31825533  0.37657147    -0.39400
O799        O  0.61889052  0.40043729  0.37046020    -0.39400
O800        O  0.59713255  0.36650361  0.34630758    -0.37100
O801        O  0.64108404  0.39024494  0.99637842    -0.38000
O802        O  0.58572235  0.39843640  0.46979031    -0.34100
O803        O  0.63159534  0.26427797  0.40636145    -0.35500
O804        O  0.59839526  0.28043937  0.37639219    -0.39800
C805        C  0.40077057  0.31419016  0.98523161    -0.13500
C806        C  0.41335879  0.31602665  0.01408374     0.16900
C807        C  0.39063758  0.30499723  0.53837114     0.03200
C808        C  0.36086739  0.30544336  0.53579099    -0.12000
C809        C  0.34767237  0.30543490  0.50707787    -0.03100
C810        C  0.37113483  0.31346051  0.98217804     0.02400
C811        C  0.44443354  0.32015400  0.01627113     0.09200
N812        N  0.40311282  0.30806275  0.56786535     0.65600
H813        H  0.34811068  0.30734615  0.55629876     0.18500
N814        N  0.35932006  0.31178707  0.95225064     0.76100
H815        H  0.41395617  0.31420679  0.96495988     0.10000
C816        C  0.46388820  0.30065161  0.00347262     0.03700
C817        C  0.49308218  0.30630062  0.00445098    -0.05000
C818        C  0.49811950  0.31689642  0.51315679    -0.23400
C819        C  0.47996692  0.33529854  0.49705527     0.13000
C820        C  0.45065371  0.33046987  0.49710912    -0.12500
N821        N  0.45437727  0.27471029  0.99021128     0.64600
H822        H  0.50793889  0.29108521  0.99499786     0.12500
N823        N  0.49086977  0.35958485  0.48155139     0.61300
H824        H  0.43682664  0.34517585  0.48522189     0.08700
O825        O  0.35671490  0.28794975  0.93955862    -0.40200
O826        O  0.35664627  0.33403272  0.93658247    -0.39400
O827        O  0.41430297  0.33133696  0.57521163    -0.39400
O828        O  0.39795077  0.28994034  0.58826373    -0.37100
O829        O  0.49305686  0.38276906  0.49565678    -0.38000
O830        O  0.49332264  0.35919722  0.45289821    -0.34100
O831        O  0.45652899  0.27101810  0.96180061    -0.35500
O832        O  0.44883135  0.25389003  0.00721152    -0.39800
C833        C  0.52903421  0.32207889  0.51475559     0.04000
C834        C  0.55031199  0.33704267  0.99329282    -0.12200
C835        C  0.57982888  0.34103319  0.99469290     0.01500
C836        C  0.59306617  0.34308215  0.02320479    -0.10700
C837        C  0.57089364  0.33192095  0.54511384     0.04000
C838        C  0.54180454  0.32615182  0.54324200    -0.10100
H839        H  0.53990040  0.33533324  0.97133578     0.09600
H840        H  0.61596192  0.34546851  0.02461700     0.07100
H841        H  0.52903062  0.32538727  0.56387142     0.06900
O842        O  0.80634638  0.36996444  0.78759633    -0.84500
O843        O  0.76391817  0.39289202  0.82377498    -0.81500
C844        C  0.76211733  0.41888236  0.81679828     0.99000
O845        O  0.75347605  0.42593580  0.79070600    -0.81600
O846        O  0.74238917  0.42260890  0.72963070    -0.84200
C847        C  0.76700756  0.42244824  0.71761233     1.03500
O848        O  0.78253773  0.40072893  0.71949425    -0.77000
O849        O  0.80516358  0.35147488  0.74200105    -0.77200
C850        C  0.81922371  0.36058042  0.76440551     1.03400
O851        O  0.77290897  0.31980213  0.77804920    -0.84500
O852        O  0.72890064  0.34491943  0.80956283    -0.81600
C853        C  0.70884933  0.36193324  0.81522525     0.99000
O854        O  0.70884770  0.38648229  0.80363888    -0.81600
O855        O  0.70011767  0.37951543  0.74217141    -0.84200
C856        C  0.70516172  0.37294381  0.71483879     1.03500
O857        O  0.73060038  0.37206335  0.70528142    -0.77000
O858        O  0.75134698  0.32457302  0.73409841    -0.77200
C859        C  0.76133488  0.30893466  0.75475910     1.03400
Cr860      Cr  0.76707300  0.35811161  0.79726812     1.93700
Cr861      Cr  0.72808391  0.40154377  0.76630487     1.93200
Cr862      Cr  0.76640757  0.36306248  0.72789781     1.39100
O863        O  0.75377660  0.37423191  0.76392845    -1.22300
C864        C  0.79404400  0.60052973  0.01792504     0.04000
C865        C  0.80718705  0.58672941  0.55034894    -0.12200
C866        C  0.79901744  0.55829358  0.55169161     0.01500
C867        C  0.78172803  0.54239659  0.01899532    -0.10700
C868        C  0.78537357  0.55612530  0.99081510     0.04000
C869        C  0.79164647  0.58526630  0.99046091    -0.10100
H870        H  0.80932947  0.59872868  0.57128614     0.09600
H871        H  0.77763861  0.51983771  0.01944793     0.07100
H872        H  0.79361208  0.59625263  0.96891489     0.06900
C873        C  0.75190702  0.09754201  0.75991586     0.04000
C874        C  0.76034129  0.08738371  0.78866516    -0.12200
C875        C  0.76437425  0.05840881  0.79330708     0.01500
C876        C  0.76055968  0.03945751  0.76932307    -0.10700
C877        C  0.75352506  0.04917256  0.74022956     0.04000
C878        C  0.74861077  0.07821160  0.73566993    -0.10100
H879        H  0.76481223  0.10192015  0.80709230     0.09600
H880        H  0.76456540  0.01706583  0.77298826     0.07100
H881        H  0.74375272  0.08589623  0.71301778     0.06900
O882        O  0.77251932  0.87920479  0.97425581    -0.84500
O883        O  0.82170957  0.90210150  0.95113931    -0.81500
C884        C  0.81965511  0.92736922  0.96052855     0.99000
O885        O  0.82380209  0.93289460  0.98824316    -0.81600
O886        O  0.82802014  0.92541112  0.55548338    -0.84200
C887        C  0.80269068  0.92241564  0.56500332     1.03500
O888        O  0.78858934  0.90091034  0.55753342    -0.77000
O889        O  0.77203452  0.85318170  0.52694867    -0.77200
C890        C  0.76187355  0.86290520  0.50235524     1.03400
O891        O  0.80175710  0.82692158  0.98655220    -0.84500
O892        O  0.85215264  0.85229734  0.96937050    -0.81600
C893        C  0.87278687  0.86931033  0.96822659     0.99000
O894        O  0.87055244  0.89350577  0.98054640    -0.81600
O895        O  0.87394605  0.88572479  0.54733520    -0.84200
C896        C  0.86575625  0.87578783  0.57261892     1.03500
O897        O  0.83942170  0.87290995  0.57802729    -0.77000
O898        O  0.82524648  0.82689294  0.54362670    -0.77200
C899        C  0.82064777  0.81211902  0.52030020     1.03400
Cr900      Cr  0.81258793  0.86612830  0.97312137     1.93700
Cr901      Cr  0.84849048  0.90745601  0.51995683     1.93200
Cr902      Cr  0.80761472  0.86454410  0.54908615     1.39100
O903        O  0.82505239  0.87837799  0.51666056    -1.22300
C904        C  0.05035072  0.82639563  0.76581878     0.04000
C905        C  0.03338238  0.82866657  0.73956651    -0.12200
C906        C  0.00375963  0.83218521  0.74211409     0.01500
C907        C  0.99137889  0.83281287  0.77123101    -0.10700
C908        C  0.00813320  0.83186051  0.79754990     0.04000
C909        C  0.03769008  0.82843432  0.79480124    -0.10100
H910        H  0.04349276  0.82921051  0.71735662     0.09600
H911        H  0.96849728  0.83539274  0.77352744     0.07100
H912        H  0.05088636  0.82827936  0.81499897     0.06900
C913        C  0.30730525  0.08132706  0.75145164     0.04000
C914        C  0.30511912  0.09509405  0.77984884    -0.12200
C915        C  0.30000577  0.12440589  0.78137986     0.01500
C916        C  0.29772264  0.14000640  0.75421979    -0.10700
C917        C  0.29991321  0.12654631  0.72576239     0.04000
C918        C  0.30487319  0.09726695  0.72458451    -0.10100
H919        H  0.30723200  0.08302631  0.80071472     0.09600
H920        H  0.29398874  0.16265198  0.75523105     0.07100
H921        H  0.30666365  0.08680755  0.70265552     0.06900
O922        O  0.31003061  0.32319916  0.98250688    -0.84500
O923        O  0.28666729  0.27400861  0.96217498    -0.81500
C924        C  0.27054358  0.25292768  0.95955309     0.99000
O925        O  0.24594325  0.25331409  0.97174808    -0.81600
O926        O  0.24857714  0.24803502  0.52506592    -0.84200
C927        C  0.25488655  0.25584115  0.55167228     1.03500
O928        O  0.25410534  0.28179445  0.55885088    -0.77000
O929        O  0.30078227  0.30205136  0.52774312    -0.77200
C930        C  0.32217995  0.31511192  0.00666135     1.03400
O931        O  0.25753854  0.35210101  0.96893866    -0.84500
O932        O  0.23635926  0.30345168  0.94350744    -0.81600
C933        C  0.21049134  0.30335171  0.95172332     0.99000
O934        O  0.20395527  0.29810016  0.97902428    -0.81600
O935        O  0.20283689  0.28822293  0.53314885    -0.84200
C936        C  0.20167776  0.31316768  0.54377331     1.03500
O937        O  0.22185159  0.33019928  0.53907920    -0.77000
O938        O  0.27001891  0.35331340  0.51315866    -0.77200
C939        C  0.26084394  0.36434396  0.48874843     1.03400
Cr940      Cr  0.27147251  0.31260035  0.96694771     1.93700
Cr941      Cr  0.23063246  0.27769407  0.00627804     1.93200
Cr942      Cr  0.26098062  0.31570458  0.53215171     1.39100
O943        O  0.25098570  0.29912733  0.49777880    -1.22300
C944        C  0.03281810  0.35925780  0.75474916     0.04000
C945        C  0.04956363  0.35663900  0.78093895    -0.12200
C946        C  0.07885737  0.35145457  0.77858928     0.01500
C947        C  0.09123160  0.34876648  0.74959635    -0.10700
C948        C  0.07494340  0.35224453  0.72307314     0.04000
C949        C  0.04561874  0.35765329  0.72580556    -0.10100
H950        H  0.03955857  0.35799594  0.80322835     0.09600
H951        H  0.11352337  0.34304725  0.74758117     0.07100
H952        H  0.03267891  0.35990124  0.70561915     0.06900
C953        C  0.27009600  0.57707776  0.47025855     0.04000
C954        C  0.27081543  0.59505266  0.94051198    -0.12200
C955        C  0.27458580  0.62450806  0.93992364     0.01500
C956        C  0.27893147  0.63554392  0.46729401    -0.10700
C957        C  0.27614519  0.62248320  0.49588707     0.04000
C958        C  0.27092767  0.59327592  0.49709903    -0.10100
H959        H  0.27193279  0.58300492  0.91954177     0.09600
H960        H  0.28136996  0.65831377  0.46616998     0.07100
H961        H  0.26893779  0.58285755  0.51899820     0.06900
O962        O  0.27743907  0.82886595  0.74423907    -0.84500
O963        O  0.30027151  0.77886936  0.76543827    -0.81500
C964        C  0.31575090  0.75702102  0.76676514     0.99000
O965        O  0.33845550  0.75559797  0.75112647    -0.81600
O966        O  0.31999222  0.75157955  0.69200782    -0.84200
C967        C  0.30861776  0.75864178  0.66713967     1.03500
O968        O  0.30768349  0.78450973  0.65945561    -0.77000
O969        O  0.27023139  0.81135009  0.69871735    -0.77200
C970        C  0.26065224  0.82061099  0.72371792     1.03400
O971        O  0.33244391  0.85381967  0.74507197    -0.84500
O972        O  0.35423323  0.80578801  0.77229260    -0.81600
C973        C  0.37841958  0.80291206  0.75997774     0.99000
O974        O  0.38060400  0.79623153  0.73222428    -0.81600
O975        O  0.36491531  0.78786229  0.67204524    -0.84200
C976        C  0.36531577  0.81222294  0.66015360     1.03500
O977        O  0.34702033  0.83054424  0.66768705    -0.77000
O978        O  0.30798441  0.85919374  0.70296903    -0.77200
C979        C  0.32181974  0.86974203  0.72496611     1.03400
Cr980      Cr  0.31674886  0.81591412  0.75384982     1.93700
Cr981      Cr  0.34915750  0.77509133  0.71216826     1.93200
Cr982      Cr  0.30941754  0.82012213  0.68462677     1.39100
O983        O  0.32507284  0.80371787  0.71678647    -1.22300
C984        C  0.54232848  0.86122847  0.96634546     0.04000
C985        C  0.52863146  0.85624420  0.93847491    -0.12200
C986        C  0.49893211  0.85254240  0.93726351     0.01500
C987        C  0.48301761  0.85428731  0.96447826    -0.10700
C988        C  0.50321759  0.84652418  0.48931718     0.04000
C989        C  0.53280335  0.84986135  0.49161060    -0.10100
H990        H  0.54114676  0.85520042  0.91769295     0.09600
H991        H  0.46041370  0.84988013  0.96422153     0.07100
H992        H  0.54222196  0.85357838  0.51377626     0.06900
C993        C  0.44171371  0.83404705  0.80072322    -0.13500
C994        C  0.44274933  0.81648574  0.82652788     0.16900
C995        C  0.42525481  0.79236719  0.82788883     0.03200
C996        C  0.40588091  0.78709035  0.80445267    -0.12000
C997        C  0.40358228  0.80556788  0.77956976    -0.03100
C998        C  0.42220546  0.82876665  0.77724037     0.02400
C999        C  0.45825339  0.82615291  0.85387060     0.09200
N1000       N  0.42495375  0.77463358  0.85426740     0.65600
H1001       H  0.39132122  0.76944497  0.80660830     0.18500
N1002       N  0.41948689  0.84870868  0.75293786     0.76100
H1003       H  0.45476072  0.85288922  0.79978390     0.10000
C1004       C  0.48446653  0.81430759  0.86266782     0.03700
C1005       C  0.49752406  0.82342640  0.88962450    -0.05000
C1006       C  0.48497752  0.84458395  0.90801088    -0.23400
C1007       C  0.45879585  0.85669412  0.89871476     0.13000
C1008       C  0.44565645  0.84718590  0.87201319    -0.12500
N1009       N  0.49822268  0.79329797  0.84429362     0.64600
H1010       H  0.51737815  0.81361578  0.89639299     0.12500
N1011       N  0.44562450  0.87921712  0.91551745     0.61300
H1012       H  0.42552814  0.85644280  0.86521297     0.08700
O1013       O  0.43786768  0.84912931  0.73188293    -0.40200
O1014       O  0.40165587  0.86867937  0.75514792    -0.39400
O1015       O  0.40819062  0.78034967  0.87599301    -0.39400
O1016       O  0.43681221  0.75063256  0.85319242    -0.37100
O1017       O  0.42016725  0.87674974  0.92447073    -0.38000
O1018       O  0.45747407  0.90313943  0.91660996    -0.34100
O1019       O  0.51538668  0.80091951  0.82369666    -0.35500
O1020       O  0.49779595  0.76771737  0.85255515    -0.39800
C1021       C  0.42089319  0.80492038  0.59749252    -0.13500
C1022       C  0.42972332  0.83305436  0.59399335     0.16900
C1023       C  0.41713273  0.85435594  0.61212635     0.03200
C1024       C  0.39590646  0.84724971  0.63328108    -0.12000
C1025       C  0.38712647  0.81903387  0.63691214    -0.03100
C1026       C  0.39977758  0.79773508  0.61861721     0.02400
C1027       C  0.45018645  0.83971365  0.56930179     0.09200
N1028       N  0.42624999  0.88312450  0.60989724     0.65600
H1029       H  0.38669480  0.86378867  0.64735516     0.18500
N1030       N  0.39034278  0.76898526  0.61991179     0.76100
H1031       H  0.42973405  0.78855128  0.58293173     0.10000
C1032       C  0.47709899  0.82653019  0.56803408     0.03700
C1033       C  0.49422132  0.82958896  0.54212488    -0.05000
C1034       C  0.48518038  0.84598685  0.51723656    -0.23400
C1035       C  0.45855145  0.86003712  0.51899572     0.13000
C1036       C  0.44128277  0.85664046  0.54485690    -0.12500
N1037       N  0.48718172  0.80972235  0.59285190     0.64600
H1038       H  0.51440101  0.81847071  0.54120570     0.12500
N1039       N  0.44876250  0.87791625  0.49489247     0.61300
H1040       H  0.42052041  0.86665012  0.54550563     0.08700
O1041       O  0.40706529  0.74988414  0.62915530    -0.40200
O1042       O  0.36725507  0.76213512  0.60729213    -0.39400
O1043       O  0.40921448  0.90181978  0.60036234    -0.39400
O1044       O  0.44924805  0.89052315  0.62232570    -0.37100
O1045       O  0.45750445  0.90311227  0.49335481    -0.38000
O1046       O  0.42740911  0.87061532  0.47940158    -0.34100
O1047       O  0.48954300  0.78323971  0.58980390    -0.35500
O1048       O  0.49773292  0.82167872  0.61590452    -0.39800
C1049       C  0.27428374  0.65161424  0.85777150    -0.13500
C1050       C  0.29529675  0.67260077  0.85934155     0.16900
C1051       C  0.31036869  0.67648349  0.88672143     0.03200
C1052       C  0.30411912  0.65953365  0.91192275    -0.12000
C1053       C  0.28194434  0.63961542  0.91116450    -0.03100
C1054       C  0.26735041  0.63523318  0.88340440     0.02400
C1055       C  0.29980703  0.69175050  0.83310030     0.09200
N1056       N  0.33043265  0.69902651  0.89012034     0.65600
H1057       H  0.31601549  0.66281639  0.93268307     0.18500
N1058       N  0.24443136  0.61551136  0.88119434     0.76100
H1059       H  0.26252665  0.64864063  0.83683272     0.10000
C1060       C  0.32634837  0.69359852  0.81817595     0.03700
C1061       C  0.33076155  0.71460716  0.79622348    -0.05000
C1062       C  0.30896346  0.73374243  0.78830022    -0.23400
C1063       C  0.28195177  0.73090224  0.80232807     0.13000
C1064       C  0.27771528  0.71013278  0.82464734    -0.12500
N1065       N  0.34887154  0.67407798  0.82476915     0.64600
H1066       H  0.35156081  0.71607198  0.78558680     0.12500
N1067       N  0.25856042  0.74876757  0.79420048     0.61300
H1068       H  0.25719326  0.70871777  0.83592023     0.08700
O1069       O  0.24758983  0.59334691  0.86541377    -0.40200
O1070       O  0.21972736  0.62298641  0.88937455    -0.39400
O1071       O  0.32190385  0.72437308  0.88874848    -0.39400
O1072       O  0.35502723  0.69382745  0.90024229    -0.37100
O1073       O  0.24384429  0.74276907  0.77108664    -0.38000
O1074       O  0.24933724  0.76680784  0.81308114    -0.34100
O1075       O  0.34674617  0.64865488  0.81620480    -0.35500
O1076       O  0.37272091  0.68322980  0.83348091    -0.39800
C1077       C  0.27792109  0.72152958  0.59737978    -0.13500
C1078       C  0.28561924  0.69336387  0.60299929     0.16900
C1079       C  0.29833173  0.68625993  0.63096093     0.03200
C1080       C  0.30439343  0.70762093  0.65221282    -0.12000
C1081       C  0.29821012  0.73627903  0.64593728    -0.03100
C1082       C  0.28398428  0.74291995  0.61844363     0.02400
C1083       C  0.28401592  0.67302406  0.57742445     0.09200
N1084       N  0.30681309  0.65778579  0.63733105     0.65600
H1085       H  0.31508900  0.70180962  0.67305092     0.18500
N1086       N  0.27624277  0.77134096  0.61093151     0.76100
H1087       H  0.26819608  0.72711436  0.57591093     0.10000
C1088       C  0.26202014  0.65300535  0.57483977     0.03700
C1089       C  0.26008857  0.63621559  0.54848370    -0.05000
C1090       C  0.27976870  0.63922880  0.52441382    -0.23400
C1091       C  0.30236089  0.65876527  0.52771082     0.13000
C1092       C  0.30409874  0.67549088  0.55393230    -0.12500
N1093       N  0.24075708  0.65048285  0.59804793     0.64600
H1094       H  0.24256084  0.62150989  0.54637321     0.12500
N1095       N  0.32409541  0.66154000  0.50497089     0.61300
H1096       H  0.32122224  0.69069648  0.55593835     0.08700
O1097       O  0.25087265  0.77945557  0.61494715    -0.40200
O1098       O  0.29279363  0.78604170  0.59470399    -0.39400
O1099       O  0.33235116  0.65039638  0.63288722    -0.39400
O1100       O  0.29079742  0.64226296  0.65326435    -0.37100
O1101       O  0.34188264  0.63994992  0.00514855    -0.38000
O1102       O  0.32692443  0.68470797  0.49096672    -0.34100
O1103       O  0.21928724  0.66662382  0.59758174    -0.35500
O1104       O  0.24065105  0.62900925  0.61514009    -0.39800
C1105       C  0.24914538  0.43953579  0.45870359    -0.13500
C1106       C  0.26319605  0.45543710  0.48099533     0.16900
C1107       C  0.27557108  0.44158465  0.50598429     0.03200
C1108       C  0.27435372  0.41206605  0.50808091    -0.12000
C1109       C  0.26059313  0.39575670  0.48567182    -0.03100
C1110       C  0.24752624  0.40992967  0.46090841     0.02400
C1111       C  0.26483374  0.48652733  0.47790014     0.09200
N1112       N  0.28916383  0.45730865  0.52962747     0.65600
H1113       H  0.28437647  0.40193626  0.52740673     0.18500
N1114       N  0.23659662  0.39674053  0.93764921     0.76100
H1115       H  0.23924706  0.45019013  0.43962045     0.10000
C1116       C  0.28827319  0.49937111  0.46345806     0.03700
C1117       C  0.28922641  0.52884464  0.46052557    -0.05000
C1118       C  0.26721449  0.54592023  0.47216746    -0.22600
C1119       C  0.24548034  0.53477185  0.98615319     0.13000
C1120       C  0.24676993  0.50523980  0.98811629    -0.12500
N1121       N  0.31142749  0.48273754  0.45198710     0.64600
H1122       H  0.30756427  0.53848974  0.44973933     0.12500
N1123       N  0.22257691  0.54944466  0.00091778     0.61300
H1124       H  0.23090119  0.49405403  0.00136193     0.08700
O1125       O  0.24285243  0.39077956  0.41225335    -0.40200
O1126       O  0.21034859  0.39318941  0.94257362    -0.39400
O1127       O  0.27491351  0.46496456  0.55266778    -0.39400
O1128       O  0.31597363  0.45892509  0.53017420    -0.37100
O1129       O  0.22154035  0.55040193  0.02965075    -0.38000
O1130       O  0.20087309  0.55632415  0.98571737    -0.34100
O1131       O  0.31331415  0.47800393  0.42374440    -0.35500
O1132       O  0.33261839  0.47791085  0.46881852    -0.39800
C1133       C  0.15113519  0.35534741  0.59450691    -0.13500
C1134       C  0.14049881  0.33365151  0.61325207     0.16900
C1135       C  0.14775813  0.30531864  0.60672130     0.03200
C1136       C  0.16582968  0.29911363  0.58218918    -0.12000
C1137       C  0.17824091  0.32088487  0.56488042    -0.03100
C1138       C  0.17014260  0.34917479  0.57062288     0.02400
C1139       C  0.12219805  0.34085910  0.63979990     0.09200
N1140       N  0.13886558  0.28266803  0.62617513     0.65600
H1141       H  0.17150727  0.27764637  0.57805524     0.18500
N1142       N  0.18038918  0.37181930  0.55202954     0.76100
H1143       H  0.14499501  0.37691871  0.59861010     0.10000
C1144       C  0.13170822  0.35959430  0.66255318     0.03700
C1145       C  0.11509752  0.36419280  0.68857985    -0.05000
C1146       C  0.08923858  0.34984955  0.69293397    -0.23400
C1147       C  0.07907990  0.33200081  0.66953343     0.13000
C1148       C  0.09547182  0.32790602  0.64310237    -0.12500
N1149       N  0.15913452  0.37252609  0.66064439     0.64600
H1150       H  0.12306938  0.37813551  0.70613054     0.12500
N1151       N  0.05327408  0.31634082  0.67303256     0.61300
H1152       H  0.08780651  0.31376391  0.62562071     0.08700
O1153       O  0.16706931  0.37834227  0.52811394    -0.40200
O1154       O  0.19884340  0.38857390  0.56242200    -0.39400
O1155       O  0.12409449  0.26274184  0.61549263    -0.39400
O1156       O  0.14977826  0.28011767  0.65227922    -0.37100
O1157       O  0.03161350  0.32334756  0.65781815    -0.38000
O1158       O  0.05388099  0.29252658  0.68604465    -0.34100
O1159       O  0.16101998  0.39886259  0.65627272    -0.35500
O1160       O  0.18095270  0.35865891  0.66840447    -0.39800
C1161       C  0.14108468  0.32313386  0.91178099    -0.13500
C1162       C  0.14963681  0.32135703  0.88109076     0.16900
C1163       C  0.17758402  0.31237447  0.87414881     0.03200
C1164       C  0.19661571  0.30645141  0.89756390    -0.12000
C1165       C  0.18843744  0.30861992  0.92830523    -0.03100
C1166       C  0.16007697  0.31646943  0.93537300     0.02400
C1167       C  0.13014361  0.33056005  0.85643122     0.09200
N1168       N  0.18694211  0.30880703  0.84330875     0.65600
H1169       H  0.21799997  0.29983290  0.89144358     0.18500
N1170       N  0.15042597  0.31864559  0.96621980     0.76100
H1171       H  0.11984632  0.33040107  0.91751896     0.10000
C1172       C  0.10241474  0.31956209  0.85345307     0.03700
C1173       C  0.08565058  0.32746251  0.82854889    -0.05000
C1174       C  0.09602226  0.34624950  0.80632315    -0.23400
C1175       C  0.12324434  0.35829497  0.81013903     0.13000
C1176       C  0.13985133  0.35055305  0.83514791    -0.12500
N1177       N  0.09145058  0.29934322  0.87464301     0.64600
H1178       H  0.06491166  0.31784039  0.82588966     0.12500
N1179       N  0.13422581  0.37866873  0.78907899     0.61300
H1180       H  0.16057000  0.36017322  0.83789799     0.08700
O1181       O  0.15114574  0.34227078  0.97964150    -0.40200
O1182       O  0.13657657  0.29851592  0.97792439    -0.39400
O1183       O  0.20652652  0.32431527  0.83287167    -0.39400
O1184       O  0.17935978  0.28719095  0.82853446    -0.37100
O1185       O  0.12555580  0.40396641  0.79034910    -0.38000
O1186       O  0.15591395  0.37269255  0.77319620    -0.34100
O1187       O  0.07125692  0.30627082  0.89223867    -0.35500
O1188       O  0.09828254  0.27358945  0.87199454    -0.39800
C1189       C  0.27257807  0.15223623  0.64912090    -0.13500
C1190       C  0.28909691  0.17652930  0.64459803     0.16900
C1191       C  0.31008881  0.18367042  0.66607022     0.03200
C1192       C  0.31373672  0.16691485  0.69214458    -0.12000
C1193       C  0.29655851  0.14306689  0.69723990    -0.03100
C1194       C  0.27600775  0.13559408  0.67527008     0.02400
C1195       C  0.28092525  0.19646711  0.62019579     0.09200
N1196       N  0.32685289  0.20863530  0.66237821     0.65600
H1197       H  0.32967084  0.17281427  0.70873233     0.18500
N1198       N  0.25685627  0.11261403  0.68045959     0.76100
H1199       H  0.25589499  0.14707216  0.63309110     0.10000
C1200       C  0.29414256  0.19634562  0.59132494     0.03700
C1201       C  0.28505625  0.21548429  0.56885739    -0.05000
C1202       C  0.26288313  0.23475854  0.57490494    -0.23400
C1203       C  0.24925963  0.23426621  0.60357755     0.13000
C1204       C  0.25841807  0.21528054  0.62594626    -0.12500
N1205       N  0.31644813  0.17669404  0.58441495     0.64600
H1206       H  0.29554177  0.21555210  0.54684269     0.12500
N1207       N  0.22463972  0.25128291  0.60948009     0.61300
H1208       H  0.24764177  0.21492015  0.64780509     0.08700
O1209       O  0.23623147  0.11573012  0.69871183    -0.40200
O1210       O  0.25811654  0.09086877  0.66376252    -0.39400
O1211       O  0.31921902  0.23135099  0.67524534    -0.39400
O1212       O  0.35125447  0.20692461  0.65034521    -0.37100
O1213       O  0.20032893  0.24022335  0.60705051    -0.38000
O1214       O  0.22721226  0.27433091  0.62376130    -0.34100
O1215       O  0.31053401  0.15358360  0.57148525    -0.35500
O1216       O  0.34206198  0.18454060  0.58594750    -0.39800
C1217       C  0.27096642  0.17056925  0.84538534    -0.13500
C1218       C  0.29361159  0.17030388  0.86605450     0.16900
C1219       C  0.31789772  0.15365129  0.85964654     0.03200
C1220       C  0.31937182  0.13803790  0.83238630    -0.12000
C1221       C  0.29695849  0.13896171  0.81125266    -0.03100
C1222       C  0.27239333  0.15504377  0.81823834     0.02400
C1223       C  0.29179470  0.18924636  0.89291938     0.09200
N1224       N  0.34115768  0.15244462  0.88051528     0.65600
H1225       H  0.33832777  0.12576067  0.82734987     0.18500
N1226       N  0.24846951  0.15536362  0.79820788     0.76100
H1227       H  0.25218958  0.18320364  0.85022091     0.10000
C1228       C  0.30461466  0.21610777  0.89219216     0.03700
C1229       C  0.29875972  0.23572470  0.91528053    -0.05000
C1230       C  0.27965959  0.22942078  0.93910960    -0.23400
C1231       C  0.26805097  0.20189992  0.94074534     0.13000
C1232       C  0.27407482  0.18211333  0.91759468    -0.12500
N1233       N  0.32155058  0.22471047  0.86670246     0.64600
H1234       H  0.30781156  0.25671991  0.91331745     0.12500
N1235       N  0.25030211  0.19369999  0.96573062     0.61300
H1236       H  0.26424168  0.16140466  0.91839285     0.08700
O1237       O  0.24190163  0.17785644  0.78436422    -0.40200
O1238       O  0.23134860  0.13482600  0.79832859    -0.39400
O1239       O  0.34261195  0.13230292  0.89932939    -0.39400
O1240       O  0.36273763  0.16776156  0.87605421    -0.37100
O1241       O  0.22370708  0.19204904  0.96215784    -0.38000
O1242       O  0.26149578  0.18351601  0.98943710    -0.34100
O1243       O  0.30945047  0.23408119  0.84312290    -0.35500
O1244       O  0.34794804  0.22846272  0.87004407    -0.39800
C1245       C  0.31964593  0.94919223  0.70900094    -0.13500
C1246       C  0.32386244  0.96029670  0.73831832     0.16900
C1247       C  0.32842810  0.94155993  0.76277633     0.03200
C1248       C  0.32861002  0.91228385  0.75770478    -0.12000
C1249       C  0.32381068  0.90098747  0.72850722    -0.03100
C1250       C  0.31946798  0.91986384  0.70390845     0.02400
C1251       C  0.32127108  0.99131455  0.74329539     0.09200
N1252       N  0.33276612  0.95198536  0.79297808     0.65600
H1253       H  0.33181535  0.89832398  0.77698079     0.18500
N1254       N  0.31473967  0.90969565  0.67365706     0.76100
H1255       H  0.31570915  0.96337068  0.69006994     0.10000
C1256       C  0.33904272  0.01063550  0.72790089     0.03700
C1257       C  0.33439046  0.03982145  0.73110461    -0.05000
C1258       C  0.31210764  0.05027361  0.74945445    -0.23400
C1259       C  0.29431140  0.03091390  0.76484168     0.13000
C1260       C  0.29914898  0.00173213  0.76184076    -0.12500
N1261       N  0.36204180  0.00089359  0.70914397     0.64600
H1262       H  0.34831416  0.05441211  0.71927496     0.12500
N1263       N  0.26994483  0.04048017  0.78163306     0.61300
H1264       H  0.28475341  0.98710690  0.77293704     0.08700
O1265       O  0.33552769  0.90695858  0.65555560    -0.40200
O1266       O  0.28966064  0.90815263  0.66355716    -0.39400
O1267       O  0.31316682  0.94972331  0.81258905    -0.39400
O1268       O  0.35745652  0.95894774  0.80131649    -0.37100
O1269       O  0.26879698  0.03690148  0.81010996    -0.38000
O1270       O  0.24800845  0.04861297  0.76754756    -0.34100
O1271       O  0.36095180  0.00416015  0.68062641    -0.35500
O1272       O  0.38496449  0.99276928  0.72130503    -0.39800
C1273       C  0.12391662  0.80201306  0.74161002    -0.13500
C1274       C  0.14071655  0.82445351  0.75195250     0.16900
C1275       C  0.12796051  0.84698665  0.76816040     0.03200
C1276       C  0.09854884  0.84670849  0.77370136    -0.12000
C1277       C  0.08161796  0.82451915  0.76269240    -0.03100
C1278       C  0.09454202  0.80189739  0.74683680     0.02400
C1279       C  0.17144698  0.82401036  0.74499334     0.09200
N1280       N  0.14424413  0.87105769  0.77730831     0.65600
H1281       H  0.08871013  0.86444800  0.78538638     0.18500
N1282       N  0.07810408  0.77849319  0.73627247     0.76100
H1283       H  0.13368569  0.78454797  0.72937766     0.10000
C1284       C  0.19171501  0.81881410  0.76784208     0.03700
C1285       C  0.22061398  0.81813503  0.76027076    -0.05000
C1286       C  0.22979516  0.82195065  0.73003309    -0.23400
C1287       C  0.20943593  0.82705392  0.70713007     0.13000
C1288       C  0.18045231  0.82799292  0.71478502    -0.12500
N1289       N  0.18322986  0.81278718  0.79848464     0.64600
H1290       H  0.23593836  0.81385419  0.77807188     0.12500
N1291       N  0.21785500  0.83259916  0.67639073     0.61300
H1292       H  0.16489186  0.83212577  0.69715850     0.08700
O1293       O  0.07264885  0.75832480  0.75419086    -0.40200
O1294       O  0.07362424  0.77556321  0.70811210    -0.39400
O1295       O  0.15035305  0.88982931  0.75791774    -0.39400
O1296       O  0.14768223  0.87619537  0.80527969    -0.37100
O1297       O  0.21284928  0.81450722  0.65594390    -0.38000
O1298       O  0.22518533  0.85731900  0.66886421    -0.34100
O1299       O  0.17504725  0.78813414  0.80520441    -0.35500
O1300       O  0.18989199  0.82968323  0.81956311    -0.39800
C1301       C  0.68195847  0.88336352  0.95820615    -0.13500
C1302       C  0.67152200  0.85680431  0.48802888     0.16900
C1303       C  0.68607926  0.83643402  0.50552611     0.03200
C1304       C  0.71544682  0.83892300  0.51001514    -0.12000
C1305       C  0.73085989  0.86128190  0.49689443    -0.03100
C1306       C  0.71162304  0.88378775  0.96216765     0.02400
C1307       C  0.64056397  0.85458312  0.48233098     0.09200
N1308       N  0.67123783  0.81335788  0.51930347     0.65600
H1309       H  0.72627027  0.82312469  0.52362386     0.18500
N1310       N  0.72878354  0.89719448  0.93942361     0.76100
H1311       H  0.67275573  0.89290101  0.93807109     0.10000
C1312       C  0.62146983  0.87540851  0.49304121     0.03700
C1313       C  0.59242168  0.87320936  0.48653984    -0.05000
C1314       C  0.58179607  0.85029259  0.46963656    -0.23400
C1315       C  0.59219952  0.84271770  0.95662139     0.13000
C1316       C  0.62170950  0.84553495  0.96011176    -0.12500
N1317       N  0.63115692  0.89833906  0.51152899     0.64600
H1318       H  0.57798615  0.88927644  0.49520442     0.12500
N1319       N  0.58127904  0.81741168  0.94319352     0.61300
H1320       H  0.63572325  0.82878821  0.95207982     0.08700
O1321       O  0.73517517  0.88388773  0.91537655    -0.40200
O1322       O  0.73287942  0.92356780  0.94072324    -0.39400
O1323       O  0.67360625  0.78884858  0.50806385    -0.39400
O1324       O  0.66052648  0.81638656  0.54553450    -0.37100
O1325       O  0.58274827  0.81407948  0.91468608    -0.38000
O1326       O  0.57561225  0.79645933  0.95995994    -0.34100
O1327       O  0.63222297  0.92300356  0.50055521    -0.35500
O1328       O  0.63388765  0.89484358  0.53988185    -0.39800
C1329       C  0.89964987  0.85138984  0.64713624    -0.13500
C1330       C  0.92843510  0.85716775  0.64155208     0.16900
C1331       C  0.93672896  0.86778545  0.61296217     0.03200
C1332       C  0.91611626  0.87343090  0.59076438    -0.12000
C1333       C  0.88702587  0.86836577  0.59642876    -0.03100
C1334       C  0.87899148  0.85659474  0.62491769     0.02400
C1335       C  0.94933048  0.85214024  0.66611439     0.09200
N1336       N  0.96593312  0.87375868  0.60650130     0.65600
H1337       H  0.92297715  0.88213993  0.56915517     0.18500
N1338       N  0.85010385  0.84935085  0.63166879     0.76100
H1339       H  0.89320517  0.84261029  0.66886683     0.10000
C1340       C  0.94782006  0.86771524  0.69339790     0.03700
C1341       C  0.96609440  0.86115771  0.71739162    -0.05000
C1342       C  0.98575592  0.83868687  0.71514935    -0.23400
C1343       C  0.98760276  0.82333528  0.68751942     0.13000
C1344       C  0.96957475  0.83036132  0.66317693    -0.12500
N1345       N  0.92777282  0.89033383  0.69703152     0.64600
H1346       H  0.96483149  0.87377594  0.73796724     0.12500
N1347       N  0.00631890  0.79955190  0.68440410     0.61300
H1348       H  0.97050021  0.81798293  0.64242274     0.08700
O1349       O  0.83556962  0.86494757  0.64923157    -0.40200
O1350       O  0.84100394  0.82506978  0.62475374    -0.39400
O1351       O  0.98044761  0.85657288  0.59073915    -0.39400
O1352       O  0.97582276  0.89795294  0.61239295    -0.37100
O1353       O  0.00041414  0.77662470  0.69772770    -0.38000
O1354       O  0.02587833  0.79996168  0.66459036    -0.34100
O1355       O  0.90585376  0.88676648  0.71330741    -0.35500
O1356       O  0.93420964  0.91491834  0.68818828    -0.39800
C1357       C  0.97873204  0.82335750  0.87783334    -0.13500
C1358       C  0.96090130  0.84725820  0.87973094     0.16900
C1359       C  0.96097117  0.86716081  0.85585340     0.03200
C1360       C  0.97772168  0.86234114  0.83002464    -0.12000
C1361       C  0.99437369  0.83771723  0.82727770    -0.03100
C1362       C  0.99551189  0.81849226  0.85179253     0.02400
C1363       C  0.94097382  0.85058610  0.90569897     0.09200
N1364       N  0.94259404  0.89136114  0.85656709     0.65600
H1365       H  0.97684869  0.87737475  0.81143749     0.18500
N1366       N  0.01218873  0.79319010  0.84982659     0.76100
H1367       H  0.97895153  0.80807953  0.89618451     0.10000
C1368       C  0.91883868  0.83107547  0.91052124     0.03700
C1369       C  0.89794666  0.83666526  0.93252117    -0.05000
C1370       C  0.89838856  0.86177594  0.94981781    -0.23400
C1371       C  0.92185440  0.88030430  0.94642248     0.13000
C1372       C  0.94276564  0.87461602  0.92435650    -0.12500
N1373       N  0.91596818  0.80663051  0.89156049     0.64600
H1374       H  0.88044669  0.82196301  0.93473375     0.12500
N1375       N  0.92459065  0.90524862  0.96464152     0.61300
H1376       H  0.96008914  0.88938601  0.92122395     0.08700
O1377       O  0.03587792  0.79186220  0.86324086    -0.40200
O1378       O  0.00127051  0.77091862  0.83917588    -0.39400
O1379       O  0.95288068  0.91559336  0.86141932    -0.39400
O1380       O  0.91722662  0.88914526  0.84749754    -0.37100
O1381       O  0.93652544  0.90367102  0.99030811    -0.38000
O1382       O  0.91999737  0.92923034  0.95293910    -0.34100
O1383       O  0.92097857  0.78237876  0.90238025    -0.35500
O1384       O  0.90390790  0.80884142  0.86601605    -0.39800
C1385       C  0.73980115  0.00656787  0.66803955    -0.13500
C1386       C  0.76593698  0.99230142  0.66506465     0.16900
C1387       C  0.78716059  0.99609370  0.68719344     0.03200
C1388       C  0.78247918  0.01470388  0.71132782    -0.12000
C1389       C  0.75660003  0.02944788  0.71426230    -0.03100
C1390       C  0.73495307  0.02507767  0.69259186     0.02400
C1391       C  0.77225466  0.97566657  0.63743015     0.09200
N1392       N  0.81362729  0.98109935  0.68539806     0.65600
H1393       H  0.79929478  0.01783012  0.72777791     0.18500
N1394       N  0.70788452  0.03873337  0.69556597     0.76100
H1395       H  0.72342553  0.00368487  0.65106487     0.10000
C1396       C  0.75945527  0.94933252  0.63188395     0.03700
C1397       C  0.76850725  0.93299939  0.60700313    -0.05000
C1398       C  0.79052004  0.94243797  0.58762142    -0.23400
C1399       C  0.80214963  0.96960823  0.59248085     0.13000
C1400       C  0.79289121  0.98591894  0.61719362    -0.12500
N1401       N  0.73866320  0.93810841  0.65240401     0.64600
H1402       H  0.75928756  0.91224113  0.60388220     0.12500
N1403       N  0.82324349  0.98114239  0.57256955     0.61300
H1404       H  0.80239724  0.00644456  0.62109226     0.08700
O1405       O  0.70166749  0.05911062  0.67820939    -0.40200
O1406       O  0.68850930  0.02709292  0.71108522    -0.39400
O1407       O  0.83598536  0.99406851  0.67772457    -0.39400
O1408       O  0.81551153  0.95655384  0.69657561    -0.37100
O1409       O  0.81571224  0.99895180  0.55275245    -0.38000
O1410       O  0.84916172  0.97951760  0.57988977    -0.34100
O1411       O  0.71265017  0.93894682  0.64534043    -0.35500
O1412       O  0.74657195  0.92293810  0.67449257    -0.39800
C1413       C  0.79611952  0.99733648  0.92500565    -0.13500
C1414       C  0.79785119  0.99059796  0.89400962     0.16900
C1415       C  0.80781611  0.96374959  0.88499753     0.03200
C1416       C  0.81507670  0.94373797  0.90703607    -0.12000
C1417       C  0.81292589  0.95005122  0.93830721    -0.03100
C1418       C  0.80380803  0.97745714  0.94718395     0.02400
C1419       C  0.78954699  0.01181513  0.87111621     0.09200
N1420       N  0.81006915  0.95631260  0.85348660     0.65600
H1421       H  0.82233429  0.92308935  0.89949467     0.18500
N1422       N  0.80269589  0.98577257  0.97843516     0.76100
H1423       H  0.78893239  0.01818153  0.93198447     0.10000
C1424       C  0.76086617  0.01994770  0.86752331     0.03700
C1425       C  0.75320673  0.03757919  0.84331049    -0.05000
C1426       C  0.77385117  0.04712705  0.82268112    -0.23400
C1427       C  0.80274727  0.04048803  0.82740564     0.13000
C1428       C  0.81042512  0.02288871  0.85161432    -0.12500
N1429       N  0.73906539  0.00858353  0.88670419     0.64600
H1430       H  0.73093661  0.04223078  0.83938324     0.12500
N1431       N  0.82424943  0.05024903  0.80683861     0.61300
H1432       H  0.83253974  0.01703708  0.85457972     0.08700
O1433       O  0.82116957  0.00275163  0.98833085    -0.40200
O1434       O  0.78023728  0.98167180  0.99368193    -0.39400
O1435       O  0.83423577  0.95545838  0.84081113    -0.39400
O1436       O  0.78873006  0.94636602  0.83981377    -0.37100
O1437       O  0.83400667  0.03375488  0.78666694    -0.38000
O1438       O  0.83690902  0.07321671  0.81229965    -0.34100
O1439       O  0.72674374  0.02438703  0.90589428    -0.35500
O1440       O  0.72892044  0.98446029  0.88094868    -0.39800
C1441       C  0.79037263  0.73668107  0.99327518    -0.13500
C1442       C  0.82105390  0.72148162  0.52453580     0.16900
C1443       C  0.81603976  0.73758617  0.55101337     0.03200
C1444       C  0.81713583  0.76718498  0.54958236    -0.12000
C1445       C  0.82310821  0.78098388  0.52191988    -0.03100
C1446       C  0.79102306  0.76626950  0.99101099     0.02400
C1447       C  0.81840180  0.69040405  0.52448402     0.09200
N1448       N  0.80845625  0.72421586  0.57907868     0.65600
H1449       H  0.81216519  0.77936518  0.56982263     0.18500
N1450       N  0.77314159  0.77972143  0.96902868     0.76100
H1451       H  0.77669058  0.72476211  0.97823728     0.10000
C1452       C  0.79633190  0.67728396  0.50817840     0.03700
C1453       C  0.79513392  0.64778829  0.50653059    -0.05000
C1454       C  0.79844450  0.63168118  0.01775278    -0.23400
C1455       C  0.82235720  0.64427980  0.00369498     0.13000
C1456       C  0.83906489  0.67376146  0.53899137    -0.12500
N1457       N  0.77438158  0.69373651  0.49419492     0.64600
H1458       H  0.77756614  0.63792908  0.49469260     0.12500
N1459       N  0.84403410  0.62730532  0.98974439     0.61300
H1460       H  0.84357543  0.68337865  0.99275365     0.08700
O1461       O  0.74770248  0.78570994  0.97593045    -0.40200
O1462       O  0.78097341  0.78071901  0.94150031    -0.39400
O1463       O  0.82630566  0.72298977  0.60046229    -0.39400
O1464       O  0.78284942  0.71758714  0.58408987    -0.37100
O1465       O  0.86385615  0.61730790  0.00586556    -0.38000
O1466       O  0.84636086  0.62688681  0.96108605    -0.34100
O1467       O  0.77321488  0.69551789  0.46553423    -0.35500
O1468       O  0.75411948  0.70328105  0.51021189    -0.39800
C1469       C  0.89601957  0.35090415  0.73801391    -0.13500
C1470       C  0.91073899  0.35890904  0.76423640     0.16900
C1471       C  0.89558085  0.36691789  0.79055503     0.03200
C1472       C  0.86582308  0.36709252  0.79021542    -0.12000
C1473       C  0.85075833  0.35937696  0.76384259    -0.03100
C1474       C  0.86627769  0.35091721  0.73754882     0.02400
C1475       C  0.94199813  0.35946876  0.76320709     0.09200
N1476       N  0.91011489  0.37583496  0.81743459     0.65600
H1477       H  0.85455337  0.37361646  0.81062763     0.18500
N1478       N  0.85238720  0.34250014  0.71007425     0.76100
H1479       H  0.90772759  0.34468006  0.71775772     0.10000
C1480       C  0.95827688  0.33732421  0.77567223     0.03700
C1481       C  0.98792657  0.33801770  0.77318783    -0.05000
C1482       C  0.00158500  0.36033604  0.75794122    -0.23400
C1483       C  0.98522735  0.38250288  0.74549033     0.13000
C1484       C  0.95554556  0.38192772  0.74823337    -0.12500
N1485       N  0.94493352  0.31336630  0.78949256     0.64600
H1486       H  0.00030271  0.32067212  0.78238873     0.12500
N1487       N  0.99846985  0.40600385  0.73072665     0.61300
H1488       H  0.94301265  0.39895970  0.73861536     0.08700
O1489       O  0.84722169  0.31663590  0.70552424    -0.40200
O1490       O  0.85080557  0.35966721  0.68813027    -0.39400
O1491       O  0.91666576  0.40156779  0.82050996    -0.39400
O1492       O  0.91095980  0.35965198  0.84028363    -0.37100
O1493       O  0.99788225  0.40780667  0.70204190    -0.38000
O1494       O  0.00563672  0.42728414  0.74628888    -0.34100
O1495       O  0.93796530  0.29255041  0.77311278    -0.35500
O1496       O  0.94542150  0.31061097  0.81808708    -0.39800
C1497       C  0.77765335  0.23048222  0.76320892    -0.13500
C1498       C  0.75593727  0.21854402  0.74570548     0.16900
C1499       C  0.73668884  0.23621234  0.73023936     0.03200
C1500       C  0.73904249  0.26565549  0.73298173    -0.12000
C1501       C  0.76029793  0.27779071  0.75128805    -0.03100
C1502       C  0.78006000  0.25984769  0.76608045     0.02400
C1503       C  0.75218955  0.18764686  0.74662393     0.09200
N1504       N  0.71413673  0.22450537  0.71252830     0.65600
H1505       H  0.72373349  0.27900692  0.72141021     0.18500
N1506       N  0.80294169  0.27104083  0.78373112     0.76100
H1507       H  0.79251203  0.21687926  0.77512557     0.10000
C1508       C  0.76566217  0.16967299  0.72543718     0.03700
C1509       C  0.76438899  0.14029412  0.72944406    -0.05000
C1510       C  0.74985933  0.12850236  0.75449726    -0.23400
C1511       C  0.73568260  0.14675362  0.77519786     0.13000
C1512       C  0.73705887  0.17606222  0.77111212    -0.12500
N1513       N  0.78178313  0.18099562  0.70061925     0.64600
H1514       H  0.77580070  0.12675890  0.71363248     0.12500
N1515       N  0.71982727  0.13594735  0.80050500     0.61300
H1516       H  0.72672434  0.18990887  0.78746877     0.08700
O1517       O  0.82649804  0.27633723  0.77104414    -0.40200
O1518       O  0.80109819  0.27138000  0.81243411    -0.39400
O1519       O  0.68973463  0.22163211  0.72425539    -0.39400
O1520       O  0.71731541  0.22150508  0.68413646    -0.37100
O1521       O  0.69454828  0.12780949  0.79652508    -0.38000
O1522       O  0.72861694  0.14026383  0.82725789    -0.34100
O1523       O  0.80853192  0.18258787  0.70263490    -0.35500
O1524       O  0.77003198  0.18457521  0.67509464    -0.39800
C1525       C  0.76728742  0.51715617  0.61755415    -0.13500
C1526       C  0.79099159  0.51442829  0.63673712     0.16900
C1527       C  0.81680425  0.52758410  0.62856546     0.03200
C1528       C  0.81870091  0.54260474  0.60116952    -0.12000
C1529       C  0.79531266  0.54434500  0.58147428    -0.03100
C1530       C  0.76925217  0.53191004  0.59004689     0.02400
C1531       C  0.78919484  0.49409442  0.66224198     0.09200
N1532       N  0.84138763  0.52533491  0.64750619     0.65600
H1533       H  0.83877242  0.55221798  0.59478076     0.18500
N1534       N  0.74468659  0.53392431  0.57101501     0.76100
H1535       H  0.74749400  0.50668567  0.62328886     0.10000
C1536       C  0.76755557  0.49624453  0.68441532     0.03700
C1537       C  0.76129196  0.47297528  0.70290765    -0.05000
C1538       C  0.77669546  0.44749745  0.70012672    -0.23400
C1539       C  0.80010192  0.44638050  0.67972554     0.13000
C1540       C  0.80589325  0.46948490  0.66082970    -0.12500
N1541       N  0.75149965  0.52181269  0.68801312     0.64600
H1542       H  0.74395781  0.47477441  0.71915830     0.12500
N1543       N  0.81727855  0.42152231  0.67654408     0.61300
H1544       H  0.82238346  0.46745189  0.64363937     0.08700
O1545       O  0.73811211  0.51328656  0.55418766    -0.40200
O1546       O  0.72652255  0.55314035  0.57606644    -0.39400
O1547       O  0.86217312  0.51022385  0.63898182    -0.39400
O1548       O  0.84460444  0.54259108  0.66918288    -0.37100
O1549       O  0.84168547  0.42090655  0.68846871    -0.38000
O1550       O  0.81073577  0.40310035  0.65695014    -0.34100
O1551       O  0.72531234  0.52216378  0.68165730    -0.35500
O1552       O  0.76216591  0.54227851  0.70247949    -0.39800
C1553       C  0.79823787  0.52213728  0.91282162    -0.13500
C1554       C  0.77403905  0.50502693  0.91014279     0.16900
C1555       C  0.75284017  0.50626808  0.93286304     0.03200
C1556       C  0.75666421  0.52346649  0.95855664    -0.12000
C1557       C  0.78142056  0.53982186  0.96203914    -0.03100
C1558       C  0.80210387  0.53948276  0.93851286     0.02400
C1559       C  0.77253690  0.48375495  0.88535872     0.09200
N1560       N  0.72750093  0.48977984  0.93030702     0.65600
H1561       H  0.74032867  0.52384514  0.97603236     0.18500
N1562       N  0.82800634  0.55505618  0.94126892     0.76100
H1563       H  0.81473850  0.52107802  0.89555907     0.10000
C1564       C  0.76177222  0.49053217  0.85642369     0.03700
C1565       C  0.75949263  0.46939760  0.83407432    -0.05000
C1566       C  0.76801023  0.44126542  0.83996716    -0.23400
C1567       C  0.78008615  0.43496093  0.86871890     0.13000
C1568       C  0.78193168  0.45608391  0.89111326    -0.12500
N1569       N  0.75252660  0.51866941  0.84964468     0.64600
H1570       H  0.75034157  0.47498336  0.81227921     0.12500
N1571       N  0.79098889  0.40739246  0.87549871     0.61300
H1572       H  0.79077154  0.45086569  0.91317304     0.08700
O1573       O  0.84759663  0.54575360  0.95817560    -0.40200
O1574       O  0.83332940  0.57475308  0.92270435    -0.39400
O1575       O  0.72501156  0.46719296  0.94540955    -0.39400
O1576       O  0.70616587  0.49983634  0.91660522    -0.37100
O1577       O  0.81645026  0.40134773  0.86873745    -0.38000
O1578       O  0.77698812  0.39103670  0.89260406    -0.34100
O1579       O  0.76912256  0.53536123  0.83592589    -0.35500
O1580       O  0.72661469  0.52524603  0.85284714    -0.39800
C1581       C  0.63335322  0.35312219  0.68009058    -0.13500
C1582       C  0.63981587  0.35536380  0.64896340     0.16900
C1583       C  0.66716363  0.36388232  0.63981413     0.03200
C1584       C  0.68778708  0.36981631  0.66167627    -0.12000
C1585       C  0.68176923  0.36737063  0.69299453    -0.03100
C1586       C  0.65407220  0.35912530  0.70218829     0.02400
C1587       C  0.61823258  0.34862174  0.62576461     0.09200
N1588       N  0.67446676  0.36595711  0.60823377     0.65600
H1589       H  0.70871056  0.37622390  0.65396776     0.18500
N1590       N  0.64690684  0.35574513  0.73365931     0.76100
H1591       H  0.61232134  0.34648867  0.68718828     0.10000
C1592       C  0.61418550  0.32052933  0.61593428     0.03700
C1593       C  0.59737417  0.31512339  0.59033381    -0.05000
C1594       C  0.58426731  0.33744071  0.57470483    -0.23400
C1595       C  0.58682512  0.36532527  0.58561741     0.13000
C1596       C  0.60406616  0.37081994  0.61086879    -0.12500
N1597       N  0.62837121  0.29754100  0.63068113     0.64600
H1598       H  0.59547067  0.29363427  0.58190088     0.12500
N1599       N  0.57285259  0.38824697  0.57046517     0.61300
H1600       H  0.60710233  0.39247631  0.61833959     0.08700
O1601       O  0.64913966  0.33167154  0.74590013    -0.40200
O1602       O  0.63365433  0.37523835  0.74745632    -0.39400
O1603       O  0.67571812  0.38994971  0.59567516    -0.39400
O1604       O  0.68370656  0.34442825  0.59423547    -0.37100
O1605       O  0.54633414  0.39168376  0.57363853    -0.38000
O1606       O  0.58628090  0.40287176  0.55115603    -0.34100
O1607       O  0.61491623  0.28241841  0.64951714    -0.35500
O1608       O  0.65261418  0.28966921  0.62140520    -0.39800
C1609       C  0.66748196  0.32669136  0.87953429    -0.13500
C1610       C  0.64489314  0.34585473  0.88315422     0.16900
C1611       C  0.64181641  0.36839386  0.86247969     0.03200
C1612       C  0.66210186  0.37231639  0.83952471    -0.12000
C1613       C  0.68586135  0.35422051  0.83690458    -0.03100
C1614       C  0.68797575  0.33065510  0.85670283     0.02400
C1615       C  0.62739959  0.34446819  0.91109017     0.09200
N1616       N  0.61868343  0.38802181  0.86516424     0.65600
H1617       H  0.65966847  0.39021345  0.82437421     0.18500
N1618       N  0.71182090  0.31178663  0.85560255     0.76100
H1619       H  0.67021289  0.30959360  0.89566089     0.10000
C1620       C  0.60954063  0.32131422  0.91736048     0.03700
C1621       C  0.59409514  0.32060833  0.94468633    -0.05000
C1622       C  0.59667744  0.34246074  0.96624408    -0.23400
C1623       C  0.61511634  0.36530185  0.96018786     0.13000
C1624       C  0.63020830  0.36614463  0.93271096    -0.12500
N1625       N  0.60690375  0.29843948  0.89623238     0.64600
H1626       H  0.58029719  0.30277687  0.94927013     0.12500
N1627       N  0.61831310  0.38807351  0.98137956     0.61300
H1628       H  0.64441135  0.38369984  0.92831975     0.08700
O1629       O  0.70930427  0.28790501  0.84298923    -0.40200
O1630       O  0.73340251  0.31680899  0.87176068    -0.39400
O1631       O  0.62291866  0.41213246  0.87668816    -0.39400
O1632       O  0.59589522  0.38343725  0.85086686    -0.37100
O1633       O  0.62620761  0.38764939  0.49104753    -0.38000
O1634       O  0.60106888  0.40861832  0.98076678    -0.34100
O1635       O  0.62125018  0.27610351  0.90019752    -0.35500
O1636       O  0.58663966  0.29842365  0.87743519    -0.39800
C1637       C  0.39452068  0.30166494  0.48336500    -0.13500
C1638       C  0.40766998  0.30362287  0.51183580     0.16900
C1639       C  0.39594864  0.31664728  0.04027310     0.03200
C1640       C  0.36638576  0.31573339  0.03730981    -0.12000
C1641       C  0.35359900  0.31449656  0.00845897    -0.03100
C1642       C  0.36491027  0.30278326  0.48065853     0.02400
C1643       C  0.43896460  0.30722464  0.51258961     0.09200
N1644       N  0.40801105  0.31847125  0.07006574     0.65600
H1645       H  0.35341659  0.31658853  0.05773707     0.18500
N1646       N  0.35295206  0.30094260  0.45081542     0.76100
H1647       H  0.40744225  0.30025352  0.46291357     0.10000
C1648       C  0.45719846  0.28827874  0.52799750     0.03700
C1649       C  0.48654166  0.29359972  0.52863928    -0.05000
C1650       C  0.50316372  0.33107401  0.01828805    -0.23400
C1651       C  0.48375315  0.35067520  0.03082888     0.13000
C1652       C  0.45459215  0.34512741  0.02968321    -0.12500
N1653       N  0.44653316  0.26288005  0.54156860     0.64600
H1654       H  0.50050429  0.27905590  0.54055725     0.12500
N1655       N  0.49329298  0.37686874  0.04350044     0.61300
H1656       H  0.43980914  0.36071104  0.03850888     0.08700
O1657       O  0.35625002  0.27834283  0.43584012    -0.40200
O1658       O  0.34699000  0.32346568  0.43671380    -0.39400
O1659       O  0.40582076  0.34122590  0.08502166    -0.39400
O1660       O  0.41627907  0.29622083  0.08329691    -0.37100
O1661       O  0.49040808  0.38152947  0.07167219    -0.38000
O1662       O  0.50069759  0.39676139  0.02602250    -0.34100
O1663       O  0.43670398  0.24360383  0.52471087    -0.35500
O1664       O  0.45217729  0.25736792  0.56903854    -0.39800
loop_ 
_geom_bond_atom_site_label_1 
_geom_bond_atom_site_label_2 
_geom_bond_distance 
_geom_bond_site_symmetry_2 
_ccdc_geom_bond_type 
C1            C6   1.401       .  A
C1          C834   1.399   1_554  A
C1         C1650   1.469       .  S
C2            C3   1.403       .  A
C2          C833   1.406       .  A
C2            H7   1.084       .  S
C3            C4   1.401       .  A
C3          C790   1.478       .  S
C4          C837   1.399       .  A
C4            H8   1.084       .  S
C5            C6   1.397       .  A
C5          C836   1.400       .  A
C5          C762   1.467       .  S
C6            H9   1.083       .  S
O10         Cr28   1.978       .  S
O10          C18   1.262       .  A
O11         Cr28   2.004       .  S
O11          C12   1.264       .  A
C12         C734   1.488       .  S
C12          O13   1.262       .  A
O13         Cr29   1.983       .  S
O14         Cr29   2.016       .  S
O14          C15   1.269       .  A
C15         C706   1.493       .  S
C15          O16   1.261       .  A
O16         Cr30   1.979       .  S
O17         Cr30   1.999       .  S
O17          C18   1.264       .  A
C18         C641   1.478       .  S
O19         Cr28   2.006       .  S
O19          C27   1.264       .  A
O20         Cr28   1.980       .  S
O20          C21   1.261       .  A
C21         C781   1.486       .  S
C21          O22   1.268       .  A
O22         Cr29   2.005       .  S
O23         Cr29   1.984       .  S
O23          C24   1.259       .  A
C24         C753   1.486       .  S
C24          O25   1.264       .  A
O25         Cr30   1.991       .  S
O26         Cr30   1.978       .  S
O26          C27   1.261       .  A
C27         C669   1.489       .  S
Cr28         O31   1.769       .  S
Cr29         O31   1.768       .  S
Cr30         O31   1.767       .  S
C32          C37   1.405       .  A
C32         C865   1.402       .  A
C32         C622   1.475       .  S
C33          C34   1.403       .  A
C33         C864   1.405       .  A
C33          H38   1.085       .  S
C34         C867   1.404       .  A
C34         C697   1.487       .  S
C35          C36   1.401       .  A
C35         C866   1.401       .  A
C35          H39   1.084       .  S
C36          C37   1.402       .  A
C36         C725   1.474       .  S
C37          H40   1.084       .  S
C41          C42   1.412       .  A
C41          C46   1.407       .  A
C41         C678   1.490       .  S
C42          C43   1.407       .  A
C42          H47   1.080       .  S
C43          C44   1.400       .  A
C43         C594   1.488       .  S
C44          C45   1.399       .  A
C44          H48   1.085       .  S
C45          C46   1.400       .  A
C45         C557   1.481       .  S
C46          H49   1.082       .  S
O50         Cr68   1.975       .  S
O50         C890   1.259       .  A
O51         Cr68   1.993       .  S
O51          C52   1.264       .  A
C52         C585   1.487       .  S
C52          O53   1.263       .  A
O53        Cr901   1.995       .  S
O54         Cr69   2.001       .  S
O54          C55   1.264       .  A
C55         C566   1.485       .  S
C55          O56   1.261       .  A
O56         Cr70   1.978       .  S
O57         Cr70   2.009       .  S
O57          C58   1.269   1_554  A
C58         C473   1.489       .  S
C58         O882   1.260       .  A
O59         Cr68   2.002       .  S
O59         C899   1.264       .  A
O60         Cr68   1.967       .  S
O60          C61   1.260       .  A
C61         C538   1.489       .  S
C61          O62   1.269       .  A
O62        Cr901   2.023       .  S
O63         Cr69   1.975       .  S
O63          C64   1.262       .  A
C64         C501   1.488       .  S
C64          O65   1.267       .  A
O65         Cr70   2.011       .  S
O66         Cr70   1.982       .  S
O66          C67   1.261       .  A
C67         C613   1.487       .  S
C67         O891   1.265   1_554  A
Cr68        O903   1.760       .  S
Cr69        O885   1.980   1_554  S
Cr69        O894   2.012   1_554  S
Cr69         O71   1.768       .  S
Cr70         O71   1.764       .  S
O71        Cr900   1.766   1_554  S
C72          C73   1.405       .  A
C72          C77   1.407       .  A
C72         C445   1.480       .  S
C73          C74   1.401   1_455  A
C73          H78   1.084       .  S
C74          C75   1.400       .  A
C74         C510   1.480       .  S
C75          C76   1.405   1_655  A
C75          H79   1.085       .  S
C76          C77   1.406       .  A
C76         C529   1.487   1_455  S
C77          H80   1.082       .  S
C81          C82   1.404       .  A
C81          C86   1.407       .  A
C81         C426   1.479       .  S
C82          C83   1.399       .  A
C82          H87   1.084       .  S
C83          C84   1.398       .  A
C83         C389   1.474       .  S
C84          C85   1.400       .  A
C84          H88   1.084       .  S
C85          C86   1.406       .  A
C85         C361   1.483       .  S
C86          H89   1.083       .  S
O90        Cr108   1.999       .  S
O90          C98   1.264       .  A
O91        Cr108   1.968       .  S
O91          C92   1.259       .  A
C92         C398   1.484       .  S
C92          O93   1.266       .  A
O93        Cr109   2.009       .  S
O94        Cr941   1.973       .  S
O94          C95   1.260       .  A
C95         C370   1.484       .  S
C95          O96   1.265       .  A
O96        Cr110   2.010       .  S
O97        Cr110   1.970       .  S
O97         C930   1.260       .  A
C98         C809   1.483       .  S
C98         O929   1.262       .  A
O99        Cr108   1.981       .  S
O99         C939   1.261       .  A
O100       Cr108   1.998       .  S
O100        C101   1.265       .  A
C101        C333   1.479       .  S
C101        O102   1.261       .  A
O102       Cr109   1.985       .  S
O103       Cr941   2.020       .  S
O103        C104   1.270       .  A
C104        C305   1.480       .  S
C104        O105   1.259       .  A
O105       Cr110   1.971       .  S
O106       Cr110   2.004       .  S
O106        C107   1.266   1_554  A
C107        C277   1.484       .  S
C107        O931   1.259       .  A
Cr108       O943   1.763       .  S
Cr109       O926   1.984       .  S
Cr109       O935   2.004       .  S
Cr109       O943   1.766       .  S
Cr110       O111   1.763       .  S
O111       Cr940   1.762   1_554  S
O111       Cr941   1.767       .  S
C112        C113   1.401       .  A
C112        C117   1.407       .  A
C112        C650   1.476       .  S
C113        C114   1.396       .  A
C113        H118   1.085       .  S
C114        C115   1.397       .  A
C114        C342   1.476       .  S
C115        C116   1.405       .  A
C115        H119   1.084       .  S
C116        C117   1.408       .  A
C116        C314   1.487       .  S
C117        H120   1.081       .  S
C121        C126   1.403       .  A
C121        C954   1.406       .  A
C121        C286   1.478       .  S
C122        C123   1.405       .  A
C122        C953   1.407       .  A
C122        H127   1.082       .  S
C123        C956   1.407       .  A
C123        C221   1.494       .  S
C124        C125   1.402       .  A
C124        C955   1.406       .  A
C124        H128   1.084       .  S
C125        C126   1.398       .  A
C125        C258   1.481   1_556  S
C126        H129   1.083   1_556  S
O130       Cr148   1.999       .  S
O130        C138   1.265       .  A
O131       Cr148   1.979       .  S
O131        C132   1.261       .  A
C132        C230   1.489       .  S
C132        O133   1.267       .  A
O133       Cr149   2.009       .  S
O134       Cr149   1.978       .  S
O134        C135   1.262       .  A
C135        C249   1.487       .  S
C135        O136   1.265       .  A
O136       Cr150   2.001       .  S
O137       Cr150   1.982       .  S
O137        C138   1.260       .  A
C138        C454   1.484       .  S
O139       Cr148   1.975       .  S
O139        C147   1.260       .  A
O140       Cr148   1.993       .  S
O140        C141   1.264       .  A
C141        C165   1.485       .  S
C141        O142   1.263       .  A
O142       Cr149   1.993       .  S
O143       Cr149   2.008       .  S
O143        C144   1.266       .  A
C144        C193   1.480       .  S
C144        O145   1.260       .  A
O145       Cr150   1.978       .  S
O146       Cr150   2.007       .  S
O146        C147   1.266       .  A
C147        C417   1.483       .  S
Cr148       O151   1.763       .  S
Cr149       O151   1.770       .  S
Cr150       O151   1.771       .  S
C152        C153   1.408       .  A
C152        C989   1.405       .  A
C152       C1314   1.485       .  S
C153        C154   1.405       .  A
C153        H158   1.082       .  S
C154        C155   1.403       .  A
C154        C174   1.481       .  S
C155        C988   1.401       .  A
C155        H159   1.083       .  S
C156        C157   1.402       .  A
C156        C987   1.405       .  A
C156        C202   1.484   1_556  S
C157        C984   1.403       .  A
C157        H160   1.084   1_556  S
C161        C162   1.402       .  A
C161        C166   1.406       .  A
C161        H171   1.083       .  S
C162        C163   1.405       .  A
C162        C167   1.476       .  S
C163        C164   1.395       .  A
C163        N168   1.429       .  S
C164        C165   1.407       .  A
C164        H169   1.084       .  S
C165        C166   1.414       .  A
C166        N170   1.428       .  S
C167        C172   1.407       .  A
C167        C176   1.402       .  A
N168        O183   1.262       .  A
N168        O184   1.262       .  A
N170        O181   1.262       .  A
N170        O182   1.262       .  A
C172        C173   1.398       .  A
C172        N177   1.429       .  S
C173        C174   1.404       .  A
C173        H178   1.082       .  S
C174        C175   1.410       .  A
C175        C176   1.403       .  A
C175        N179   1.428       .  S
C176        H180   1.082       .  S
N177        O187   1.262       .  A
N177        O188   1.262       .  A
N179        O185   1.262       .  A
N179        O186   1.262       .  A
C189        C190   1.403       .  A
C189        C194   1.397       .  A
C189        H199   1.082       .  S
C190        C191   1.412       .  A
C190        C195   1.486       .  S
C191        C192   1.403       .  A
C191        N196   1.429       .  S
C192        C193   1.405       .  A
C192        H197   1.082       .  S
C193        C194   1.412       .  A
C194        N198   1.430       .  S
C195        C200   1.411       .  A
C195        C204   1.404       .  A
N196        O211   1.262       .  A
N196        O212   1.262       .  A
N198        O209   1.262       .  A
N198        O210   1.262       .  A
C200        C201   1.399       .  A
C200        N205   1.430       .  S
C201        C202   1.403       .  A
C201        H206   1.082       .  S
C202        C203   1.411       .  A
C203        C204   1.403       .  A
C203        N207   1.430       .  S
C204        H208   1.081       .  S
N205        O215   1.262       .  A
N205        O216   1.262       .  A
N207        O213   1.262       .  A
N207        O214   1.262   1_554  A
C217        C218   1.402       .  A
C217        C222   1.404       .  A
C217        H227   1.083       .  S
C218        C219   1.408       .  A
C218        C223   1.481       .  S
C219        C220   1.398       .  A
C219        N224   1.430       .  S
C220        C221   1.408       .  A
C220        H225   1.082       .  S
C221        C222   1.416       .  A
C222        N226   1.428       .  S
C223        C228   1.407       .  A
C223        C232   1.401       .  A
N224        O239   1.262       .  A
N224        O240   1.262       .  A
N226        O237   1.262       .  A
N226        O238   1.262       .  A
C228        C229   1.401       .  A
C228        N233   1.430       .  S
C229        C230   1.409       .  A
C229        H234   1.083       .  S
C230        C231   1.416       .  A
C231        C232   1.401       .  A
C231        N235   1.429       .  S
C232        H236   1.084       .  S
N233        O243   1.262       .  A
N233        O244   1.262       .  A
N235        O241   1.262       .  A
N235        O242   1.262       .  A
C245        C246   1.398       .  A
C245        C250   1.396       .  A
C245        H255   1.083       .  S
C246        C247   1.405       .  A
C246        C251   1.473       .  S
C247        C248   1.401       .  A
C247        N252   1.429       .  S
C248        C249   1.409       .  A
C248        H253   1.082       .  S
C249        C250   1.417       .  A
C250        N254   1.429       .  S
C251        C256   1.407       .  A
C251        C260   1.399       .  A
N252        O267   1.262       .  A
N252        O268   1.262       .  A
N254        O265   1.261       .  A
N254        O266   1.262       .  A
C256        C257   1.403       .  A
C256        N261   1.428       .  S
C257        C258   1.406       .  A
C257        H262   1.083       .  S
C258        C259   1.412       .  A
C259        C260   1.395       .  A
C259        N263   1.430       .  S
C260        H264   1.084       .  S
N261        O271   1.262       .  A
N261        O272   1.262       .  A
N263        O270   1.262   1_554  A
N263       O1101   1.262       .  A
O269       N1095   1.262       .  A
C273        C274   1.399       .  A
C273        C278   1.401       .  A
C273        H283   1.083       .  S
C274        C275   1.403   1_556  A
C274        C279   1.469       .  S
C275        C276   1.395       .  A
C275        N280   1.429       .  S
C276        C277   1.408   1_554  A
C276        H281   1.083       .  S
C277        C278   1.416       .  A
C278       N1114   1.429       .  S
C279        C284   1.405       .  A
C279       C1120   1.400       .  A
N280        O295   1.262       .  A
N280        O296   1.262       .  A
N282       C1110   1.429       .  S
N282        O294   1.262       .  A
N282       O1125   1.262       .  A
C284        C285   1.397       .  A
C284        N289   1.428       .  S
C285        C286   1.404       .  A
C285        H290   1.082       .  S
C286       C1119   1.412       .  A
C287        C288   1.402       .  A
C287       C1118   1.412       .  A
C287        N291   1.429       .  S
C288       C1111   1.402       .  A
C288        H292   1.082       .  S
N289        O299   1.262       .  A
N289        O300   1.262       .  A
N291        O297   1.262       .  A
N291        O298   1.262       .  A
O293       N1114   1.262       .  A
C301        C302   1.403       .  A
C301        C306   1.402       .  A
C301        H311   1.082       .  S
C302        C303   1.409       .  A
C302        C307   1.482       .  S
C303        C304   1.399       .  A
C303        N308   1.429       .  S
C304        C305   1.404       .  A
C304        H309   1.082       .  S
C305        C306   1.414       .  A
C306        N310   1.430       .  S
C307        C312   1.407       .  A
C307        C316   1.403       .  A
N308        O323   1.262       .  A
N308        O324   1.262       .  A
N310        O321   1.262       .  A
N310        O322   1.262       .  A
C312        C313   1.398       .  A
C312        N317   1.429       .  S
C313        C314   1.406       .  A
C313        H318   1.083       .  S
C314        C315   1.414       .  A
C315        C316   1.403       .  A
C315        N319   1.429       .  S
C316        H320   1.082       .  S
N317        O327   1.262       .  A
N317        O328   1.262       .  A
N319        O325   1.262       .  A
N319        O326   1.262       .  A
C329        C330   1.402       .  A
C329        C334   1.402       .  A
C329        H339   1.081       .  S
C330        C331   1.403       .  A
C330        C335   1.473       .  S
C331        C332   1.395       .  A
C331        N336   1.429       .  S
C332        C333   1.406       .  A
C332        H337   1.081       .  S
C333        C334   1.413       .  A
C334        N338   1.428       .  S
C335        C340   1.405       .  A
C335        C344   1.403       .  A
N336        O351   1.262       .  A
N336        O352   1.262       .  A
N338        O349   1.261       .  A
N338        O350   1.262       .  A
C340        C341   1.398       .  A
C340        N345   1.428       .  S
C341        C342   1.405       .  A
C341        H346   1.082       .  S
C342        C343   1.409       .  A
C343        C344   1.399       .  A
C343        N347   1.429       .  S
C344        H348   1.081       .  S
N345        O355   1.262       .  A
N345        O356   1.262       .  A
N347        O353   1.262       .  A
N347        O354   1.262       .  A
C357        C358   1.406       .  A
C357        C362   1.402       .  A
C357        H367   1.079       .  S
C358        C359   1.411       .  A
C358        C363   1.488       .  S
C359        C360   1.398       .  A
C359        N364   1.430       .  S
C360        C361   1.404       .  A
C360        H365   1.081       .  S
C361        C362   1.410       .  A
C362        N366   1.430       .  S
C363        C368   1.410       .  A
C363        C372   1.405       .  A
N364        O379   1.262       .  A
N364        O380   1.261       .  A
N366        O377   1.262       .  A
N366        O378   1.262       .  A
C368        C369   1.399       .  A
C368        N373   1.429       .  S
C369        C370   1.406       .  A
C369        H374   1.080       .  S
C370        C371   1.414       .  A
C371        C372   1.401       .  A
C371        N375   1.430       .  S
C372        H376   1.079       .  S
N373        O383   1.262       .  A
N373        O384   1.262       .  A
N375        O381   1.262       .  A
N375        O382   1.262       .  A
C385        C386   1.400       .  A
C385        C390   1.392       .  A
C385        H395   1.084       .  S
C386        C387   1.410       .  A
C386        C391   1.475       .  S
C387        C388   1.403       .  A
C387        N392   1.430       .  S
C388        C389   1.404       .  A
C388        H393   1.083       .  S
C389        C390   1.409       .  A
C390        N394   1.430       .  S
C391        C396   1.405       .  A
C391        C400   1.404       .  A
N392        O407   1.262       .  A
N392        O408   1.262       .  A
N394        O405   1.262       .  A
N394        O406   1.262       .  A
C396        C397   1.399       .  A
C396        N401   1.430       .  S
C397        C398   1.409       .  A
C397        H402   1.052       .  S
C398        C399   1.412       .  A
C399        C400   1.400       .  A
C399        N403   1.429       .  S
C400        H404   1.075       .  S
N401        O411   1.262       .  A
N401        O412   1.262       .  A
N403        O409   1.262       .  A
N403        O410   1.262       .  A
C413        C414   1.400       .  A
C413        C418   1.398       .  A
C413        H423   1.083       .  S
C414        C415   1.407       .  A
C414        C419   1.476       .  S
C415        C416   1.401       .  A
C415        N420   1.429       .  S
C416        C417   1.408       .  A
C416        H421   1.082       .  S
C417        C418   1.414       .  A
C418        N422   1.429       .  S
C419        C424   1.409   1_565  A
C419        C428   1.401   1_565  A
N420        O435   1.262       .  A
N420        O436   1.262       .  A
N422        O433   1.262       .  A
N422        O434   1.262       .  A
C424        C425   1.403       .  A
C424        N429   1.429   1_545  S
C425        C426   1.404       .  A
C425        H430   1.082       .  S
C426        C427   1.410       .  A
C427        C428   1.397       .  A
C427        N431   1.430       .  S
C428        H432   1.082   1_545  S
N429        O439   1.262       .  A
N429        O440   1.262       .  A
N431        O437   1.262       .  A
N431        O438   1.262       .  A
C441        C442   1.405       .  A
C441        C446   1.402       .  A
C441        H451   1.080       .  S
C442        C443   1.411       .  A
C442        C447   1.486       .  S
C443        C444   1.399       .  A
C443        N448   1.430       .  S
C444        C445   1.403       .  A
C444        H449   1.081       .  S
C445        C446   1.409       .  A
C446        N450   1.429       .  S
C447        C452   1.409       .  A
C447        C456   1.405       .  A
N448        O463   1.262       .  A
N448        O464   1.262       .  A
N450        O461   1.262       .  A
N450        O462   1.262       .  A
C452        C453   1.398       .  A
C452        N457   1.429       .  S
C453        C454   1.406       .  A
C453        H458   1.080       .  S
C454        C455   1.412       .  A
C455        C456   1.402       .  A
C455        N459   1.428       .  S
C456        H460   1.080       .  S
N457        O467   1.262       .  A
N457        O468   1.262       .  A
N459        O465   1.262       .  A
N459        O466   1.262       .  A
C469        C474   1.401       .  A
C469       C1302   1.402       .  A
C469        H479   1.082       .  S
C470        C471   1.404   1_556  A
C470       C1301   1.401       .  A
C470        C475   1.476       .  S
C471        C472   1.396       .  A
C471        N476   1.429       .  S
C472        C473   1.408   1_554  A
C472        H477   1.082       .  S
C473       C1306   1.419       .  A
C474       C1305   1.413       .  A
C474        N478   1.429       .  S
C475        C480   1.406       .  A
C475       C1316   1.401       .  A
N476        O491   1.262       .  A
N476        O492   1.262       .  A
N478        O489   1.262       .  A
N478        O490   1.262       .  A
C480        C481   1.399       .  A
C480        N485   1.428   1_556  S
C481        C482   1.404       .  A
C481        H486   1.084       .  S
C482       C1315   1.413       .  A
C482        C984   1.483       .  S
C483        C484   1.402       .  A
C483       C1314   1.413       .  A
C483        N487   1.429       .  S
C484       C1307   1.402       .  A
C484        H488   1.083       .  S
N485        O495   1.262   1_554  A
N485        O496   1.262       .  A
N487        O493   1.262       .  A
N487        O494   1.262       .  A
C497        C498   1.400       .  A
C497        C502   1.402       .  A
C497        H507   1.082       .  S
C498        C499   1.405       .  A
C498        C503   1.478       .  S
C499        C500   1.400       .  A
C499        N504   1.429       .  S
C500        C501   1.408       .  A
C500        H505   1.082       .  S
C501        C502   1.417       .  A
C502        N506   1.429       .  S
C503        C508   1.408       .  A
C503        C512   1.402       .  A
N504        O519   1.262       .  A
N504        O520   1.262       .  A
N506        O517   1.262       .  A
N506        O518   1.262       .  A
C508        C509   1.400       .  A
C508        N513   1.429       .  S
C509        C510   1.404       .  A
C509        H514   1.083       .  S
C510        C511   1.409       .  A
C511        C512   1.402       .  A
C511        N515   1.428       .  S
C512        H516   1.083       .  S
N513        O523   1.262       .  A
N513        O524   1.262       .  A
N515        O521   1.262       .  A
N515        O522   1.262   1_655  A
C525        C526   1.404       .  A
C525        C530   1.404       .  A
C525        H535   1.081       .  S
C526        C527   1.408       .  A
C526        C531   1.482       .  S
C527        C528   1.397       .  A
C527        N532   1.429       .  S
C528        C529   1.406       .  A
C528        H533   1.082       .  S
C529        C530   1.413       .  A
C530        N534   1.428   1_655  S
C531        C536   1.406       .  A
C531        C540   1.404       .  A
N532        O547   1.262       .  A
N532        O548   1.262       .  A
N534        O545   1.262       .  A
N534        O546   1.262       .  A
C536        C537   1.396       .  A
C536        N541   1.430       .  S
C537        C538   1.407       .  A
C537        H542   1.071       .  S
C538        C539   1.415       .  A
C539        C540   1.405       .  A
C539        N543   1.429       .  S
C540        H544   1.078       .  S
N541        O551   1.262       .  A
N541        O552   1.262       .  A
N543        O549   1.262       .  A
N543        O550   1.262       .  A
C553        C554   1.402   1_545  A
C553        C558   1.404       .  A
C553        H563   1.082       .  S
C554        C555   1.407       .  A
C554        C559   1.474       .  S
C555        C556   1.392   1_565  A
C555        N560   1.430       .  S
C556        C557   1.403       .  A
C556        H561   1.083       .  S
C557        C558   1.413       .  A
C558        N562   1.429       .  S
C559        C564   1.405       .  A
C559        C568   1.397       .  A
N560        O575   1.262       .  A
N560        O576   1.262       .  A
N562        O573   1.262       .  A
N562        O574   1.262       .  A
C564        C565   1.401       .  A
C564        N569   1.429       .  S
C565        C566   1.409       .  A
C565        H570   1.082       .  S
C566        C567   1.418       .  A
C567        C568   1.396       .  A
C567        N571   1.430       .  S
C568        H572   1.082   1_565  S
N569        O579   1.262       .  A
N569        O580   1.262       .  A
N571        O577   1.261   1_565  A
N571        O578   1.262       .  A
C581        C582   1.401       .  A
C581        C586   1.404       .  A
C581        H591   1.082   1_565  S
C582        C583   1.408       .  A
C582        C587   1.480   1_565  S
C583        C584   1.397       .  A
C583        N588   1.431       .  S
C584        C585   1.408       .  A
C584        H589   1.082       .  S
C585        C586   1.413       .  A
C586        N590   1.427       .  S
C587        C592   1.408   1_545  A
C587        C596   1.402       .  A
N588        O603   1.262       .  A
N588        O604   1.262       .  A
N590        O601   1.261   1_565  A
N590        O602   1.262       .  A
C592        C593   1.398   1_565  A
C592        N597   1.430       .  S
C593        C594   1.406       .  A
C593        H598   1.083       .  S
C594        C595   1.414       .  A
C595        C596   1.402       .  A
C595        N599   1.428       .  S
C596        H600   1.083       .  S
N597        O607   1.262       .  A
N597        O608   1.262       .  A
N599        O605   1.262       .  A
N599        O606   1.262       .  A
C609        C614   1.397       .  A
C609       C1442   1.399       .  A
C609        H619   1.082       .  S
C610        C611   1.407       .  A
C610       C1441   1.400   1_554  A
C610        C615   1.481       .  S
C611        C612   1.403       .  A
C611        N616   1.428       .  S
C612        C613   1.407       .  A
C612        H617   1.081       .  S
C613       C1446   1.416   1_554  A
C614       C1445   1.411       .  A
C614        N618   1.428       .  S
C615        C620   1.407       .  A
C615        C624   1.402       .  A
N616        O631   1.262       .  A
N616        O632   1.262       .  A
N618        O629   1.262       .  A
N618        O630   1.261       .  A
C620        C621   1.401       .  A
C620        N625   1.429       .  S
C621       C1454   1.405       .  A
C621        H626   1.082       .  S
C622        C623   1.411       .  A
C622       C1453   1.402       .  A
C623       C1456   1.401       .  A
C623        N627   1.430       .  S
C624       C1455   1.405       .  A
C624       H1460   1.081   1_554  S
N625        O635   1.262       .  A
N625        O636   1.262       .  A
N627        O633   1.262       .  A
N627        O634   1.262       .  A
H628       C1456   1.082       .  S
C637        C638   1.400       .  A
C637        C642   1.396       .  A
C637        H647   1.082       .  S
C638        C639   1.407       .  A
C638        C643   1.476       .  S
C639        C640   1.400       .  A
C639        N644   1.428       .  S
C640        C641   1.405       .  A
C640        H645   1.082       .  S
C641        C642   1.414       .  A
C642        N646   1.430       .  S
C643        C648   1.407       .  A
C643        C652   1.404       .  A
N644        O659   1.262       .  A
N644        O660   1.262       .  A
N646        O657   1.262       .  A
N646        O658   1.262       .  A
C648        C649   1.394       .  A
C648        N653   1.430       .  S
C649        C650   1.403   1_655  A
C649        H654   1.082   1_655  S
C650        C651   1.408   1_455  A
C651        C652   1.403       .  A
C651        N655   1.428   1_655  S
C652        H656   1.081       .  S
N653        O663   1.262       .  A
N653        O664   1.262       .  A
N655        O661   1.262   1_455  A
N655        O662   1.262       .  A
C665        C666   1.400       .  A
C665        C670   1.397       .  A
C665        H675   1.083       .  S
C666        C667   1.411       .  A
C666        C671   1.482       .  S
C667        C668   1.403       .  A
C667        N672   1.430       .  S
C668        C669   1.408       .  A
C668        H673   1.082       .  S
C669        C670   1.416       .  A
C670        N674   1.429       .  S
C671        C676   1.409       .  A
C671        C680   1.403       .  A
N672        O687   1.262       .  A
N672        O688   1.262       .  A
N674        O685   1.262       .  A
N674        O686   1.261       .  A
C676        C677   1.401       .  A
C676        N681   1.431       .  S
C677        C678   1.408       .  A
C677        H682   1.083       .  S
C678        C679   1.413       .  A
C679        C680   1.400       .  A
C679        N683   1.429       .  S
C680        H684   1.083       .  S
N681        O691   1.262       .  A
N681        O692   1.262       .  A
N683        O689   1.262       .  A
N683        O690   1.262       .  A
C693        C694   1.403       .  A
C693        C698   1.402       .  A
C693        H703   1.081       .  S
C694        C695   1.408       .  A
C694        C699   1.484       .  S
C695        C696   1.403       .  A
C695        N700   1.428       .  S
C696        C697   1.405       .  A
C696        H701   1.082       .  S
C697        C698   1.413       .  A
C698        N702   1.429       .  S
C699        C704   1.407       .  A
C699        C708   1.401       .  A
N700        O715   1.262       .  A
N700        O716   1.262       .  A
N702        O713   1.262       .  A
N702        O714   1.262       .  A
C704        C705   1.403       .  A
C704        N709   1.429       .  S
C705        C706   1.409       .  A
C705        H710   1.081       .  S
C706        C707   1.417       .  A
C707        C708   1.403       .  A
C707        N711   1.429       .  S
C708        H712   1.081       .  S
N709        O719   1.262       .  A
N709        O720   1.262       .  A
N711        O717   1.262       .  A
N711        O718   1.262       .  A
C721        C722   1.404       .  A
C721        C726   1.400       .  A
C721        H731   1.083       .  S
C722        C723   1.411       .  A
C722        C727   1.481       .  S
C723        C724   1.401       .  A
C723        N728   1.429       .  S
C724        C725   1.401       .  A
C724        H729   1.083       .  S
C725        C726   1.407       .  A
C726        N730   1.429       .  S
C727        C732   1.408       .  A
C727        C736   1.400       .  A
N728        O743   1.262       .  A
N728        O744   1.262       .  A
N730        O741   1.262       .  A
N730        O742   1.262       .  A
C732        C733   1.403       .  A
C732        N737   1.429       .  S
C733        C734   1.408       .  A
C733        H738   1.082       .  S
C734        C735   1.417       .  A
C735        C736   1.399       .  A
C735        N739   1.429       .  S
C736        H740   1.083       .  S
N737        O747   1.262       .  A
N737        O748   1.262       .  A
N739        O745   1.262       .  A
N739        O746   1.262       .  A
C749        C750   1.401       .  A
C749        C754   1.405       .  A
C749        H759   1.083       .  S
C750        C751   1.404       .  A
C750        C755   1.472       .  S
C751        C752   1.392       .  A
C751        N756   1.430       .  S
C752        C753   1.407       .  A
C752        H757   1.083       .  S
C753        C754   1.417       .  A
C754        N758   1.429       .  S
C755        C760   1.409       .  A
C755        C764   1.402       .  A
N756        O771   1.262       .  A
N756        O772   1.262       .  A
N758        O769   1.262       .  A
N758        O770   1.262       .  A
C760        C761   1.399       .  A
C760        N765   1.429       .  S
C761        C762   1.400       .  A
C761        H766   1.084       .  S
C762        C763   1.406       .  A
C763        C764   1.398       .  A
C763        N767   1.429       .  S
C764        H768   1.084       .  S
N765        O775   1.262       .  A
N765        O776   1.262       .  A
N767        O773   1.262       .  A
N767        O774   1.262       .  A
C777        C778   1.402       .  A
C777        C782   1.403       .  A
C777        H787   1.081       .  S
C778        C779   1.408       .  A
C778        C783   1.481       .  S
C779        C780   1.396       .  A
C779        N784   1.429       .  S
C780        C781   1.406       .  A
C780        H785   1.082       .  S
C781        C782   1.416       .  A
C782        N786   1.429       .  S
C783        C788   1.410       .  A
C783        C792   1.403       .  A
N784        O799   1.262       .  A
N784        O800   1.262       .  A
N786        O797   1.262       .  A
N786        O798   1.262       .  A
C788        C789   1.403       .  A
C788        N793   1.429       .  S
C789        C790   1.405       .  A
C789        H794   1.082       .  S
C790        C791   1.409       .  A
C791        C792   1.396       .  A
C791        N795   1.429       .  S
C792        H796   1.082       .  S
N793        O803   1.262       .  A
N793        O804   1.261       .  A
N795        O802   1.262       .  A
N795       O1633   1.262       .  A
O801       N1627   1.262       .  A
C805        C806   1.402   1_556  A
C805        C810   1.399       .  A
C805        H815   1.081       .  S
C806       C1639   1.407       .  A
C806        C811   1.476       .  S
C807        C808   1.403       .  A
C807       C1638   1.411       .  A
C807        N812   1.430       .  S
C808        C809   1.406       .  A
C808        H813   1.082       .  S
C809       C1642   1.416       .  A
C810       C1641   1.415   1_556  A
C810        N814   1.430       .  S
C811        C816   1.409       .  A
C811       C1652   1.403       .  A
N812        O827   1.262       .  A
N812        O828   1.262       .  A
N814        O825   1.262       .  A
N814        O826   1.262       .  A
C816        C817   1.398       .  A
C816        N821   1.429   1_554  S
C817       C1650   1.402       .  A
C817        H822   1.081   1_554  S
C818        C819   1.407       .  A
C818       C1649   1.403       .  A
C818        C833   1.475       .  S
C819        C820   1.396       .  A
C819        N823   1.429       .  S
C820       C1643   1.403       .  A
C820        H824   1.084       .  S
N821        O831   1.262       .  A
N821        O832   1.262   1_556  A
N823        O829   1.262       .  A
N823        O830   1.262       .  A
C833        C838   1.402       .  A
C834        C835   1.401       .  A
C834        H839   1.085       .  S
C835        C836   1.402   1_556  A
C835       C1622   1.476       .  S
C836        H840   1.083       .  S
C837        C838   1.396       .  A
C837       C1594   1.468       .  S
C838        H841   1.084       .  S
O842       Cr860   1.973       .  S
O842        C850   1.260       .  A
O843       Cr860   2.016       .  S
O843        C844   1.268       .  A
C844       C1566   1.493       .  S
C844        O845   1.261       .  A
O845       Cr861   1.978       .  S
O846       Cr861   2.007       .  S
O846        C847   1.268       .  A
C847       C1538   1.482       .  S
C847        O848   1.259       .  A
O848       Cr862   1.970       .  S
O849       Cr862   1.999       .  S
O849        C850   1.262       .  A
C850       C1473   1.481       .  S
O851       Cr860   2.012       .  S
O851        C859   1.268       .  A
O852       Cr860   1.973       .  S
O852        C853   1.259       .  A
C853       C1613   1.482       .  S
C853        O854   1.266       .  A
O854       Cr861   2.000       .  S
O855       Cr861   1.986       .  S
O855        C856   1.260       .  A
C856       C1585   1.485       .  S
C856        O857   1.265       .  A
O857       Cr862   2.000       .  S
O858       Cr862   1.971       .  S
O858        C859   1.261       .  A
C859       C1501   1.479       .  S
Cr860       O863   1.765       .  S
Cr861       O863   1.765       .  S
Cr862       O863   1.765       .  S
C864        C869   1.408   1_554  A
C864       C1454   1.486       .  S
C865        C866   1.399       .  A
C865        H870   1.084       .  S
C866       C1529   1.474       .  S
C867        C868   1.407   1_554  A
C867        H871   1.083       .  S
C868        C869   1.408       .  A
C868       C1557   1.491       .  S
C869        H872   1.082       .  S
C873        C874   1.408       .  A
C873        C878   1.410       .  A
C873       C1510   1.484       .  S
C874        C875   1.396       .  A
C874        H879   1.082       .  S
C875        C876   1.393       .  A
C875       C1426   1.465       .  S
C876        C877   1.397       .  A
C876        H880   1.085       .  S
C877        C878   1.404       .  A
C877       C1389   1.477       .  S
C878        H881   1.083       .  S
O882       Cr900   1.978       .  S
O883       Cr900   2.001       .  S
O883        C884   1.265       .  A
C884       C1417   1.483       .  S
C884        O885   1.259       .  A
O886       Cr901   2.013       .  S
O886        C887   1.267       .  A
C887       C1398   1.481       .  S
C887        O888   1.258       .  A
O888       Cr902   1.967       .  S
O889       Cr902   2.010       .  S
O889        C890   1.267       .  A
C890       C1305   1.479       .  S
O891       Cr900   2.010       .  S
O892       Cr900   1.973       .  S
O892        C893   1.262       .  A
C893       C1370   1.487       .  S
C893        O894   1.267       .  A
O895       Cr901   1.982       .  S
O895        C896   1.264       .  A
C896       C1333   1.489       .  S
C896        O897   1.266       .  A
O897       Cr902   2.004       .  S
O898       Cr902   1.972       .  S
O898        C899   1.258       .  A
C899       C1445   1.476       .  S
Cr901       O903   1.769       .  S
Cr902       O903   1.765       .  S
C904        C905   1.407       .  A
C904        C909   1.404       .  A
C904       C1277   1.476       .  S
C905        C906   1.404       .  A
C905        H910   1.082       .  S
C906        C907   1.401   1_455  A
C906       C1342   1.488   1_455  S
C907        C908   1.400   1_655  A
C907        H911   1.085       .  S
C908        C909   1.401       .  A
C908       C1361   1.478   1_455  S
C909        H912   1.083       .  S
C913        C914   1.408       .  A
C913        C918   1.404       .  A
C913       C1258   1.485       .  S
C914        C915   1.405       .  A
C914        H919   1.083       .  S
C915        C916   1.406       .  A
C915       C1221   1.485       .  S
C916        C917   1.404       .  A
C916        H920   1.084       .  S
C917        C918   1.402       .  A
C917       C1193   1.484       .  S
C918        H921   1.084       .  S
O922       Cr940   2.002       .  S
O922        C930   1.264   1_556  A
O923       Cr940   1.965       .  S
O923        C924   1.258       .  A
C924       C1230   1.487       .  S
C924        O925   1.271       .  A
O925       Cr941   2.029   1_556  S
O926        C927   1.260       .  A
C927       C1202   1.474       .  S
C927        O928   1.265       .  A
O928       Cr942   2.011       .  S
O929       Cr942   1.983       .  S
C930       C1641   1.478       .  S
O931       Cr940   1.976       .  S
O932       Cr940   1.995       .  S
O932        C933   1.265       .  A
C933       C1165   1.482       .  S
C933        O934   1.260       .  A
O934       Cr941   1.983   1_556  S
O935        C936   1.267       .  A
C936       C1137   1.479       .  S
C936        O937   1.261       .  A
O937       Cr942   1.980       .  S
O938       Cr942   2.008       .  S
O938        C939   1.268       .  A
C939       C1109   1.489       .  S
Cr942       O943   1.764       .  S
C944        C945   1.400       .  A
C944        C949   1.404       .  A
C944       C1482   1.473       .  S
C945        C946   1.399       .  A
C945        H950   1.085       .  S
C946        C947   1.402       .  A
C946       C1174   1.482       .  S
C947        C948   1.404       .  A
C947        H951   1.083       .  S
C948        C949   1.404       .  A
C948       C1146   1.484       .  S
C949        H952   1.081       .  S
C953        C958   1.404       .  A
C953       C1118   1.480       .  S
C954        C955   1.403       .  A
C954        H959   1.082       .  S
C955       C1053   1.490       .  S
C956        C957   1.404       .  A
C956        H960   1.083       .  S
C957        C958   1.403       .  A
C957       C1090   1.490       .  S
C958        H961   1.084       .  S
O962       Cr980   1.989       .  S
O962        C970   1.261       .  A
O963       Cr980   1.981       .  S
O963        C964   1.261       .  A
C964       C1062   1.485       .  S
C964        O965   1.267       .  A
O965       Cr981   2.005       .  S
O966       Cr981   1.977       .  S
O966        C967   1.261       .  A
C967       C1081   1.491       .  S
C967        O968   1.268       .  A
O968       Cr982   2.013       .  S
O969       Cr982   1.984       .  S
O969        C970   1.261       .  A
C970       C1286   1.475       .  S
O971       Cr980   1.976       .  S
O971        C979   1.263       .  A
O972       Cr980   1.997       .  S
O972        C973   1.262       .  A
C973        C997   1.469       .  S
C973        O974   1.261       .  A
O974       Cr981   1.992       .  S
O975       Cr981   2.001       .  S
O975        C976   1.264       .  A
C976       C1025   1.478       .  S
C976        O977   1.260       .  A
O977       Cr982   1.977       .  S
O978       Cr982   2.013       .  S
O978        C979   1.268       .  A
C979       C1249   1.487       .  S
Cr980       O983   1.766       .  S
Cr981       O983   1.770       .  S
Cr982       O983   1.771       .  S
C984        C985   1.404       .  A
C985        C986   1.407       .  A
C985        H990   1.084       .  S
C986        C987   1.408       .  A
C986       C1006   1.492       .  S
C987        H991   1.082       .  S
C988        C989   1.402       .  A
C988       C1034   1.486       .  S
C989        H992   1.084       .  S
C993        C994   1.405       .  A
C993        C998   1.404       .  A
C993       H1003   1.083       .  S
C994        C995   1.408       .  A
C994        C999   1.478       .  S
C995        C996   1.398       .  A
C995       N1000   1.429       .  S
C996        C997   1.402       .  A
C996       H1001   1.084       .  S
C997        C998   1.407       .  A
C998       N1002   1.429       .  S
C999       C1004   1.406       .  A
C999       C1008   1.400       .  A
N1000      O1015   1.262       .  A
N1000      O1016   1.262       .  A
N1002      O1013   1.262       .  A
N1002      O1014   1.262       .  A
C1004      C1005   1.402       .  A
C1004      N1009   1.428       .  S
C1005      C1006   1.409       .  A
C1005      H1010   1.082       .  S
C1006      C1007   1.415       .  A
C1007      C1008   1.400       .  A
C1007      N1011   1.431       .  S
C1008      H1012   1.083       .  S
N1009      O1019   1.262       .  A
N1009      O1020   1.262       .  A
N1011      O1017   1.262       .  A
N1011      O1018   1.262       .  A
C1021      C1022   1.401       .  A
C1021      C1026   1.397       .  A
C1021      H1031   1.083       .  S
C1022      C1023   1.409       .  A
C1022      C1027   1.480       .  S
C1023      C1024   1.401       .  A
C1023      N1028   1.429       .  S
C1024      C1025   1.405       .  A
C1024      H1029   1.083       .  S
C1025      C1026   1.414       .  A
C1026      N1030   1.431       .  S
C1027      C1032   1.407       .  A
C1027      C1036   1.402       .  A
N1028      O1043   1.262       .  A
N1028      O1044   1.262       .  A
N1030      O1041   1.262       .  A
N1030      O1042   1.262       .  A
C1032      C1033   1.397       .  A
C1032      N1037   1.429       .  S
C1033      C1034   1.405       .  A
C1033      H1038   1.082       .  S
C1034      C1035   1.415       .  A
C1035      C1036   1.401       .  A
C1035      N1039   1.430       .  S
C1036      H1040   1.082       .  S
N1037      O1047   1.262       .  A
N1037      O1048   1.262       .  A
N1039      O1045   1.262       .  A
N1039      O1046   1.262       .  A
C1049      C1050   1.403       .  A
C1049      C1054   1.403       .  A
C1049      H1059   1.083       .  S
C1050      C1051   1.409       .  A
C1050      C1055   1.479       .  S
C1051      C1052   1.396       .  A
C1051      N1056   1.432       .  S
C1052      C1053   1.406       .  A
C1052      H1057   1.082       .  S
C1053      C1054   1.415       .  A
C1054      N1058   1.429       .  S
C1055      C1060   1.408       .  A
C1055      C1064   1.401       .  A
N1056      O1071   1.262       .  A
N1056      O1072   1.262       .  A
N1058      O1069   1.262       .  A
N1058      O1070   1.262       .  A
C1060      C1061   1.399       .  A
C1060      N1065   1.431       .  S
C1061      C1062   1.408       .  A
C1061      H1066   1.083       .  S
C1062      C1063   1.414       .  A
C1063      C1064   1.401       .  A
C1063      N1067   1.429       .  S
C1064      H1068   1.083       .  S
N1065      O1075   1.262       .  A
N1065      O1076   1.262       .  A
N1067      O1073   1.262       .  A
N1067      O1074   1.262       .  A
C1077      C1078   1.399       .  A
C1077      C1082   1.399       .  A
C1077      H1087   1.081       .  S
C1078      C1079   1.407       .  A
C1078      C1083   1.478       .  S
C1079      C1080   1.404       .  A
C1079      N1084   1.429       .  S
C1080      C1081   1.411       .  A
C1080      H1085   1.080       .  S
C1081      C1082   1.416       .  A
C1082      N1086   1.428       .  S
C1083      C1088   1.407       .  A
C1083      C1092   1.399       .  A
N1084      O1099   1.262       .  A
N1084      O1100   1.262       .  A
N1086      O1097   1.261       .  A
N1086      O1098   1.262       .  A
C1088      C1089   1.405       .  A
C1088      N1093   1.428       .  S
C1089      C1090   1.408       .  A
C1089      H1094   1.083       .  S
C1090      C1091   1.416       .  A
C1091      C1092   1.397       .  A
C1091      N1095   1.430       .  S
C1092      H1096   1.084       .  S
N1093      O1103   1.262       .  A
N1093      O1104   1.262       .  A
N1095      O1102   1.262       .  A
C1105      C1106   1.401       .  A
C1105      C1110   1.404       .  A
C1105      H1115   1.083       .  S
C1106      C1107   1.404       .  A
C1106      C1111   1.477       .  S
C1107      C1108   1.398       .  A
C1107      N1112   1.429       .  S
C1108      C1109   1.409       .  A
C1108      H1113   1.082       .  S
C1109      C1110   1.417       .  A
C1111      C1116   1.407       .  A
N1112      O1127   1.262       .  A
N1112      O1128   1.262       .  A
N1114      O1126   1.262       .  A
C1116      C1117   1.399       .  A
C1116      N1121   1.428       .  S
C1117      C1118   1.403       .  A
C1117      H1122   1.083       .  S
C1119      C1120   1.398       .  A
C1119      N1123   1.430   1_556  S
C1120      H1124   1.082   1_556  S
N1121      O1131   1.261       .  A
N1121      O1132   1.262       .  A
N1123      O1129   1.262       .  A
N1123      O1130   1.262   1_554  A
C1133      C1134   1.406       .  A
C1133      C1138   1.403       .  A
C1133      H1143   1.072       .  S
C1134      C1135   1.408       .  A
C1134      C1139   1.483       .  S
C1135      C1136   1.398       .  A
C1135      N1140   1.431       .  S
C1136      C1137   1.405       .  A
C1136      H1141   1.062       .  S
C1137      C1138   1.410       .  A
C1138      N1142   1.429       .  S
C1139      C1144   1.408       .  A
C1139      C1148   1.405       .  A
N1140      O1155   1.262       .  A
N1140      O1156   1.262       .  A
N1142      O1153   1.261       .  A
N1142      O1154   1.262       .  A
C1144      C1145   1.396       .  A
C1144      N1149   1.429       .  S
C1145      C1146   1.405       .  A
C1145      H1150   1.081       .  S
C1146      C1147   1.413       .  A
C1147      C1148   1.402       .  A
C1147      N1151   1.429       .  S
C1148      H1152   1.080       .  S
N1149      O1159   1.262       .  A
N1149      O1160   1.262       .  A
N1151      O1157   1.262       .  A
N1151      O1158   1.262       .  A
C1161      C1162   1.406       .  A
C1161      C1166   1.404       .  A
C1161      H1171   1.082       .  S
C1162      C1163   1.409       .  A
C1162      C1167   1.484       .  S
C1163      C1164   1.392       .  A
C1163      N1168   1.430       .  S
C1164      C1165   1.404       .  A
C1164      H1169   1.083       .  S
C1165      C1166   1.414       .  A
C1166      N1170   1.429       .  S
C1167      C1172   1.410       .  A
C1167      C1176   1.404       .  A
N1168      O1183   1.262       .  A
N1168      O1184   1.262       .  A
N1170      O1181   1.261       .  A
N1170      O1182   1.262       .  A
C1172      C1173   1.399       .  A
C1172      N1177   1.429       .  S
C1173      C1174   1.405       .  A
C1173      H1178   1.083       .  S
C1174      C1175   1.411       .  A
C1175      C1176   1.397       .  A
C1175      N1179   1.430       .  S
C1176      H1180   1.082       .  S
N1177      O1187   1.262       .  A
N1177      O1188   1.262       .  A
N1179      O1185   1.262       .  A
N1179      O1186   1.262       .  A
C1189      C1190   1.401       .  A
C1189      C1194   1.401       .  A
C1189      H1199   1.083       .  S
C1190      C1191   1.408       .  A
C1190      C1195   1.477       .  S
C1191      C1192   1.402       .  A
C1191      N1196   1.429       .  S
C1192      C1193   1.405       .  A
C1192      H1197   1.083       .  S
C1193      C1194   1.412       .  A
C1194      N1198   1.429       .  S
C1195      C1200   1.408       .  A
C1195      C1204   1.400       .  A
N1196      O1211   1.262       .  A
N1196      O1212   1.262       .  A
N1198      O1209   1.262       .  A
N1198      O1210   1.262       .  A
C1200      C1201   1.404       .  A
C1200      N1205   1.428       .  S
C1201      C1202   1.404       .  A
C1201      H1206   1.082       .  S
C1202      C1203   1.409       .  A
C1203      C1204   1.398       .  A
C1203      N1207   1.428       .  S
C1204      H1208   1.082       .  S
N1205      O1215   1.262       .  A
N1205      O1216   1.262       .  A
N1207      O1213   1.262       .  A
N1207      O1214   1.262       .  A
C1217      C1218   1.400       .  A
C1217      C1222   1.399       .  A
C1217      H1227   1.083       .  S
C1218      C1219   1.410       .  A
C1218      C1223   1.481       .  S
C1219      C1220   1.406       .  A
C1219      N1224   1.429       .  S
C1220      C1221   1.406       .  A
C1220      H1225   1.082       .  S
C1221      C1222   1.411       .  A
C1222      N1226   1.429       .  S
C1223      C1228   1.406       .  A
C1223      C1232   1.404       .  A
N1224      O1239   1.262       .  A
N1224      O1240   1.262       .  A
N1226      O1237   1.262       .  A
N1226      O1238   1.262       .  A
C1228      C1229   1.398       .  A
C1228      N1233   1.429       .  S
C1229      C1230   1.407       .  A
C1229      H1234   1.083       .  S
C1230      C1231   1.413       .  A
C1231      C1232   1.406       .  A
C1231      N1235   1.429       .  S
C1232      H1236   1.083       .  S
N1233      O1243   1.262       .  A
N1233      O1244   1.262       .  A
N1235      O1241   1.262       .  A
N1235      O1242   1.262       .  A
C1245      C1246   1.403       .  A
C1245      C1250   1.403       .  A
C1245      H1255   1.083       .  S
C1246      C1247   1.408       .  A
C1246      C1251   1.485       .  S
C1247      C1248   1.400       .  A
C1247      N1252   1.429       .  S
C1248      C1249   1.406       .  A
C1248      H1253   1.083       .  S
C1249      C1250   1.415       .  A
C1250      N1254   1.429       .  S
C1251      C1256   1.409   1_565  A
C1251      C1260   1.404   1_565  A
N1252      O1267   1.262       .  A
N1252      O1268   1.262       .  A
N1254      O1265   1.262       .  A
N1254      O1266   1.262       .  A
C1256      C1257   1.401       .  A
C1256      N1261   1.429       .  S
C1257      C1258   1.405       .  A
C1257      H1262   1.083       .  S
C1258      C1259   1.411       .  A
C1259      C1260   1.402       .  A
C1259      N1263   1.430       .  S
C1260      H1264   1.082   1_545  S
N1261      O1271   1.262       .  A
N1261      O1272   1.262   1_545  A
N1263      O1269   1.262       .  A
N1263      O1270   1.262       .  A
C1273      C1274   1.400       .  A
C1273      C1278   1.397       .  A
C1273      H1283   1.083       .  S
C1274      C1275   1.409       .  A
C1274      C1279   1.473       .  S
C1275      C1276   1.401       .  A
C1275      N1280   1.430       .  S
C1276      C1277   1.404       .  A
C1276      H1281   1.083       .  S
C1277      C1278   1.408       .  A
C1278      N1282   1.428       .  S
C1279      C1284   1.406       .  A
C1279      C1288   1.402       .  A
N1280      O1295   1.262       .  A
N1280      O1296   1.262       .  A
N1282      O1293   1.262       .  A
N1282      O1294   1.262       .  A
C1284      C1285   1.396       .  A
C1284      N1289   1.430       .  S
C1285      C1286   1.405       .  A
C1285      H1290   1.083       .  S
C1286      C1287   1.410       .  A
C1287      C1288   1.401       .  A
C1287      N1291   1.428       .  S
C1288      H1292   1.083       .  S
N1289      O1299   1.262       .  A
N1289      O1300   1.262       .  A
N1291      O1297   1.261       .  A
N1291      O1298   1.262       .  A
C1301      C1306   1.404       .  A
C1301      H1311   1.083       .  S
C1302      C1303   1.408       .  A
C1302      C1307   1.480       .  S
C1303      C1304   1.399       .  A
C1303      N1308   1.429       .  S
C1304      C1305   1.404       .  A
C1304      H1309   1.082       .  S
C1306      N1310   1.429       .  S
C1307      C1312   1.407       .  A
N1308      O1323   1.262       .  A
N1308      O1324   1.262       .  A
N1310      O1321   1.262       .  A
N1310      O1322   1.262       .  A
C1312      C1313   1.399       .  A
C1312      N1317   1.429       .  S
C1313      C1314   1.405       .  A
C1313      H1318   1.083       .  S
C1315      C1316   1.401       .  A
C1315      N1319   1.429       .  S
C1316      H1320   1.084       .  S
N1317      O1327   1.262       .  A
N1317      O1328   1.262       .  A
N1319      O1325   1.262       .  A
N1319      O1326   1.262       .  A
C1329      C1330   1.400       .  A
C1329      C1334   1.399       .  A
C1329      H1339   1.082       .  S
C1330      C1331   1.405       .  A
C1330      C1335   1.479       .  S
C1331      C1332   1.401       .  A
C1331      N1336   1.428       .  S
C1332      C1333   1.408       .  A
C1332      H1337   1.082       .  S
C1333      C1334   1.418       .  A
C1334      N1338   1.430       .  S
C1335      C1340   1.406       .  A
C1335      C1344   1.403       .  A
N1336      O1351   1.262       .  A
N1336      O1352   1.262       .  A
N1338      O1349   1.262       .  A
N1338      O1350   1.262       .  A
C1340      C1341   1.395       .  A
C1340      N1345   1.429       .  S
C1341      C1342   1.407       .  A
C1341      H1346   1.082       .  S
C1342      C1343   1.414       .  A
C1343      C1344   1.405       .  A
C1343      N1347   1.429   1_655  S
C1344      H1348   1.082       .  S
N1345      O1355   1.262       .  A
N1345      O1356   1.262       .  A
N1347      O1353   1.262       .  A
N1347      O1354   1.262       .  A
C1357      C1358   1.405       .  A
C1357      C1362   1.403       .  A
C1357      H1367   1.082       .  S
C1358      C1359   1.408       .  A
C1358      C1363   1.479       .  S
C1359      C1360   1.395       .  A
C1359      N1364   1.430       .  S
C1360      C1361   1.403       .  A
C1360      H1365   1.082       .  S
C1361      C1362   1.409       .  A
C1362      N1366   1.428   1_655  S
C1363      C1368   1.407       .  A
C1363      C1372   1.401       .  A
N1364      O1379   1.262       .  A
N1364      O1380   1.262       .  A
N1366      O1377   1.262       .  A
N1366      O1378   1.262       .  A
C1368      C1369   1.397       .  A
C1368      N1373   1.429       .  S
C1369      C1370   1.407       .  A
C1369      H1374   1.082       .  S
C1370      C1371   1.417       .  A
C1371      C1372   1.401       .  A
C1371      N1375   1.429       .  S
C1372      H1376   1.082       .  S
N1373      O1383   1.262       .  A
N1373      O1384   1.262       .  A
N1375      O1381   1.262       .  A
N1375      O1382   1.262       .  A
C1385      C1386   1.403   1_545  A
C1385      C1390   1.404       .  A
C1385      H1395   1.081       .  S
C1386      C1387   1.406       .  A
C1386      C1391   1.472       .  S
C1387      C1388   1.391   1_565  A
C1387      N1392   1.430       .  S
C1388      C1389   1.403       .  A
C1388      H1393   1.082       .  S
C1389      C1390   1.410       .  A
C1390      N1394   1.428       .  S
C1391      C1396   1.404       .  A
C1391      C1400   1.399       .  A
N1392      O1407   1.262       .  A
N1392      O1408   1.262       .  A
N1394      O1405   1.262       .  A
N1394      O1406   1.262       .  A
C1396      C1397   1.400       .  A
C1396      N1401   1.429       .  S
C1397      C1398   1.409       .  A
C1397      H1402   1.082       .  S
C1398      C1399   1.412       .  A
C1399      C1400   1.396       .  A
C1399      N1403   1.427       .  S
C1400      H1404   1.082   1_565  S
N1401      O1411   1.262       .  A
N1401      O1412   1.262       .  A
N1403      O1409   1.261       .  A
N1403      O1410   1.262       .  A
C1413      C1414   1.398       .  A
C1413      C1418   1.400       .  A
C1413      H1423   1.083   1_565  S
C1414      C1415   1.405       .  A
C1414      C1419   1.472   1_565  S
C1415      C1416   1.395       .  A
C1415      N1420   1.429       .  S
C1416      C1417   1.407       .  A
C1416      H1421   1.083       .  S
C1417      C1418   1.415       .  A
C1418      N1422   1.426       .  S
C1419      C1424   1.408       .  A
C1419      C1428   1.401       .  A
N1420      O1435   1.262       .  A
N1420      O1436   1.262       .  A
N1422      O1433   1.261   1_565  A
N1422      O1434   1.262       .  A
C1424      C1425   1.398       .  A
C1424      N1429   1.429       .  S
C1425      C1426   1.399       .  A
C1425      H1430   1.082       .  S
C1426      C1427   1.407       .  A
C1427      C1428   1.397       .  A
C1427      N1431   1.429       .  S
C1428      H1432   1.082       .  S
N1429      O1439   1.262       .  A
N1429      O1440   1.262   1_545  A
N1431      O1437   1.262       .  A
N1431      O1438   1.262       .  A
C1441      C1446   1.401       .  A
C1441      H1451   1.082       .  S
C1442      C1443   1.406       .  A
C1442      C1447   1.473       .  S
C1443      C1444   1.400       .  A
C1443      N1448   1.428       .  S
C1444      C1445   1.406       .  A
C1444      H1449   1.082       .  S
C1446      N1450   1.429       .  S
C1447      C1452   1.407       .  A
C1447      C1456   1.401       .  A
N1448      O1463   1.262       .  A
N1448      O1464   1.262       .  A
N1450      O1461   1.262       .  A
N1450      O1462   1.262       .  A
C1452      C1453   1.396       .  A
C1452      N1457   1.429       .  S
C1453      H1458   1.083       .  S
C1454      C1455   1.412       .  A
C1455      N1459   1.428   1_554  S
N1457      O1467   1.262       .  A
N1457      O1468   1.262       .  A
N1459      O1465   1.262   1_556  A
N1459      O1466   1.262       .  A
C1469      C1470   1.397       .  A
C1469      C1474   1.396       .  A
C1469      H1479   1.083       .  S
C1470      C1471   1.405       .  A
C1470      C1475   1.468       .  S
C1471      C1472   1.397       .  A
C1471      N1476   1.429       .  S
C1472      C1473   1.407       .  A
C1472      H1477   1.082       .  S
C1473      C1474   1.418       .  A
C1474      N1478   1.429       .  S
C1475      C1480   1.405       .  A
C1475      C1484   1.401       .  A
N1476      O1491   1.262       .  A
N1476      O1492   1.262       .  A
N1478      O1489   1.262       .  A
N1478      O1490   1.261       .  A
C1480      C1481   1.396       .  A
C1480      N1485   1.429       .  S
C1481      C1482   1.404   1_655  A
C1481      H1486   1.082   1_655  S
C1482      C1483   1.408   1_455  A
C1483      C1484   1.398       .  A
C1483      N1487   1.428       .  S
C1484      H1488   1.082       .  S
N1485      O1495   1.262       .  A
N1485      O1496   1.262       .  A
N1487      O1493   1.262       .  A
N1487      O1494   1.262   1_655  A
C1497      C1498   1.399       .  A
C1497      C1502   1.397       .  A
C1497      H1507   1.083       .  S
C1498      C1499   1.405       .  A
C1498      C1503   1.471       .  S
C1499      C1500   1.400       .  A
C1499      N1504   1.428       .  S
C1500      C1501   1.407       .  A
C1500      H1505   1.083       .  S
C1501      C1502   1.414       .  A
C1502      N1506   1.429       .  S
C1503      C1508   1.405       .  A
C1503      C1512   1.398       .  A
N1504      O1519   1.262       .  A
N1504      O1520   1.262       .  A
N1506      O1517   1.262       .  A
N1506      O1518   1.262       .  A
C1508      C1509   1.400       .  A
C1508      N1513   1.429       .  S
C1509      C1510   1.407       .  A
C1509      H1514   1.082       .  S
C1510      C1511   1.414       .  A
C1511      C1512   1.397       .  A
C1511      N1515   1.430       .  S
C1512      H1516   1.082       .  S
N1513      O1523   1.262       .  A
N1513      O1524   1.262       .  A
N1515      O1521   1.261       .  A
N1515      O1522   1.262       .  A
C1525      C1526   1.404       .  A
C1525      C1530   1.397       .  A
C1525      H1535   1.083       .  S
C1526      C1527   1.409       .  A
C1526      C1531   1.477       .  S
C1527      C1528   1.399       .  A
C1527      N1532   1.429       .  S
C1528      C1529   1.402       .  A
C1528      H1533   1.083       .  S
C1529      C1530   1.409       .  A
C1530      N1534   1.429       .  S
C1531      C1536   1.407       .  A
C1531      C1540   1.401       .  A
N1532      O1547   1.262       .  A
N1532      O1548   1.262       .  A
N1534      O1545   1.262       .  A
N1534      O1546   1.262       .  A
C1536      C1537   1.398       .  A
C1536      N1541   1.429       .  S
C1537      C1538   1.406       .  A
C1537      H1542   1.083       .  S
C1538      C1539   1.415       .  A
C1539      C1540   1.398       .  A
C1539      N1543   1.428       .  S
C1540      H1544   1.082       .  S
N1541      O1551   1.262       .  A
N1541      O1552   1.262       .  A
N1543      O1549   1.262       .  A
N1543      O1550   1.262       .  A
C1553      C1554   1.402       .  A
C1553      C1558   1.405       .  A
C1553      H1563   1.082       .  S
C1554      C1555   1.407       .  A
C1554      C1559   1.482       .  S
C1555      C1556   1.401       .  A
C1555      N1560   1.429       .  S
C1556      C1557   1.406       .  A
C1556      H1561   1.082       .  S
C1557      C1558   1.414       .  A
C1558      N1562   1.429       .  S
C1559      C1564   1.405       .  A
C1559      C1568   1.401       .  A
N1560      O1575   1.262       .  A
N1560      O1576   1.262       .  A
N1562      O1573   1.262       .  A
N1562      O1574   1.262       .  A
C1564      C1565   1.403       .  A
C1564      N1569   1.428       .  S
C1565      C1566   1.410       .  A
C1565      H1570   1.082       .  S
C1566      C1567   1.416       .  A
C1567      C1568   1.402       .  A
C1567      N1571   1.429       .  S
C1568      H1572   1.083       .  S
N1569      O1579   1.262       .  A
N1569      O1580   1.262       .  A
N1571      O1577   1.262       .  A
N1571      O1578   1.262       .  A
C1581      C1582   1.402       .  A
C1581      C1586   1.406       .  A
C1581      H1591   1.082       .  S
C1582      C1583   1.404       .  A
C1582      C1587   1.474       .  S
C1583      C1584   1.395       .  A
C1583      N1588   1.429       .  S
C1584      C1585   1.406       .  A
C1584      H1589   1.082       .  S
C1585      C1586   1.416       .  A
C1586      N1590   1.429       .  S
C1587      C1592   1.408       .  A
C1587      C1596   1.403       .  A
N1588      O1603   1.262       .  A
N1588      O1604   1.262       .  A
N1590      O1601   1.262       .  A
N1590      O1602   1.262       .  A
C1592      C1593   1.399       .  A
C1592      N1597   1.428       .  S
C1593      C1594   1.400       .  A
C1593      H1598   1.084       .  S
C1594      C1595   1.406       .  A
C1595      C1596   1.399       .  A
C1595      N1599   1.429       .  S
C1596      H1600   1.084       .  S
N1597      O1607   1.262       .  A
N1597      O1608   1.262       .  A
N1599      O1605   1.262       .  A
N1599      O1606   1.262       .  A
C1609      C1610   1.400       .  A
C1609      C1614   1.399       .  A
C1609      H1619   1.082       .  S
C1610      C1611   1.406       .  A
C1610      C1615   1.474       .  S
C1611      C1612   1.396       .  A
C1611      N1616   1.430       .  S
C1612      C1613   1.407       .  A
C1612      H1617   1.082       .  S
C1613      C1614   1.416       .  A
C1614      N1618   1.429       .  S
C1615      C1620   1.407       .  A
C1615      C1624   1.402       .  A
N1616      O1631   1.262       .  A
N1616      O1632   1.262       .  A
N1618      O1629   1.262       .  A
N1618      O1630   1.262       .  A
C1620      C1621   1.399       .  A
C1620      N1625   1.429       .  S
C1621      C1622   1.405       .  A
C1621      H1626   1.083       .  S
C1622      C1623   1.410       .  A
C1623      C1624   1.396       .  A
C1623      N1627   1.429       .  S
C1624      H1628   1.083       .  S
N1625      O1635   1.262       .  A
N1625      O1636   1.262       .  A
N1627      O1634   1.262       .  A
C1637      C1638   1.399       .  A
C1637      C1642   1.396       .  A
C1637      H1647   1.083       .  S
C1638      C1643   1.480       .  S
C1639      C1640   1.395       .  A
C1639      N1644   1.429       .  S
C1640      C1641   1.404       .  A
C1640      H1645   1.082       .  S
C1642      N1646   1.429       .  S
C1643      C1648   1.411       .  A
N1644      O1659   1.262       .  A
N1644      O1660   1.261       .  A
N1646      O1657   1.261       .  A
N1646      O1658   1.262       .  A
C1648      C1649   1.402       .  A
C1648      N1653   1.431       .  S
C1649      H1654   1.084       .  S
C1650      C1651   1.407       .  A
C1651      C1652   1.396       .  A
C1651      N1655   1.430       .  S
C1652      H1656   1.080       .  S
N1653      O1663   1.262       .  A
N1653      O1664   1.262       .  A
N1655      O1661   1.262       .  A
N1655      O1662   1.262       .  A
