geometry optimzed in LAMMPS
_audit_creation_date              2020-11-30 
_audit_creation_method            'lammps2cif' 
_symmetry_space_group_name_H-M    'P1' 
_symmetry_Int_Tables_number       1 
_symmetry_cell_setting            triclinic 
loop_ 
_symmetry_equiv_pos_as_xyz 
  x,y,z 
_cell_length_a                    40.21754557 
_cell_length_b                    41.09197346377091 
_cell_length_c                    40.741923060554385 
_cell_angle_alpha                 90.31997212170425 
_cell_angle_beta                  90.07930899816242 
_cell_angle_gamma                 89.384341383321 
loop_ 
_atom_site_label 
_atom_site_type_symbol 
_atom_site_fract_x 
_atom_site_fract_y 
_atom_site_fract_z 
_atom_site_charge 
C1          C  0.39390144  0.00975876  0.40252402     0.80200
N2          N  0.37206071  0.03345042  0.39380951    -0.78100
C3          C  0.35117068  0.02970881  0.36806916     0.82700
N4          N  0.35278208  0.00183814  0.35014007    -0.78000
C5          C  0.37584559  0.48116265  0.35646464     0.82800
N6          N  0.39882762  0.48663423  0.38042094    -0.79700
O7          O  0.40561437  0.37399771  0.25879540    -0.71800
O8          O  0.40472820  0.43793769  0.32787301    -0.72000
O9          O  0.40614673  0.37194346  0.32419145    -0.71800
O10         O  0.40531351  0.43990142  0.26250855    -0.71900
O11         O  0.35174229  0.43566733  0.25720318    -0.71800
O12         O  0.35246282  0.37607751  0.32924982    -0.71800
O13         O  0.35107279  0.44174350  0.32239415    -0.71800
O14         O  0.35204993  0.36999730  0.26401378    -0.72000
V15         V  0.40452065  0.40593179  0.29335217     1.35200
V16         V  0.35275409  0.40585422  0.29322910     1.35200
C17         C  0.37875636  0.35989092  0.25113444     0.77500
C18         C  0.37752095  0.45212008  0.33519299     0.77500
C19         C  0.37967472  0.36245820  0.33738748     0.77400
C20         C  0.37863342  0.44937850  0.24921847     0.77400
C21         C  0.36144650  0.30632420  0.40591119     0.80200
N22         N  0.35896789  0.33194878  0.38498032    -0.78100
C23         C  0.38132582  0.33503826  0.36017730     0.82700
N24         N  0.40622739  0.31262124  0.35649070    -0.78000
C25         C  0.40844387  0.28692939  0.37706352     0.79200
N26         N  0.38611660  0.28395177  0.40149618    -0.79700
C27         C  0.39888211  0.30116719  0.18391605     0.80200
N28         N  0.37264032  0.28101029  0.18649399    -0.78100
C29         C  0.34955661  0.28504597  0.21022852     0.82700
N30         N  0.35182919  0.31070759  0.23111869    -0.78000
C31         C  0.37768955  0.33170208  0.22872734     0.82800
N32         N  0.40135384  0.32678751  0.20524101    -0.79700
C33         C  0.35916663  0.00246095  0.18382996     0.80200
N34         N  0.38260432  0.02540272  0.18900177    -0.78100
C35         C  0.40451984  0.02293676  0.21407703     0.82700
N36         N  0.40286819  0.99700563  0.23441510    -0.78000
C37         C  0.37972081  0.47708306  0.22673829     0.82800
N38         N  0.35675847  0.48119526  0.20247226    -0.79700
C39         C  0.25353304  0.04826030  0.06905104     0.02300
C40         C  0.27892511  0.02429009  0.06832086     0.02300
C41         C  0.28271324  0.00459954  0.04045356    -0.18300
C42         C  0.26313054  0.00971002  0.01248892     0.02300
C43         C  0.23787307  0.03423769  0.01285055     0.02300
C44         C  0.23251309  0.05202107  0.04189400    -0.18300
H45         H  0.21160690  0.06868528  0.04376283     0.04300
H46         H  0.30251481  0.49170350  0.04041834     0.04300
C47         C  0.14751124  0.04809638  0.90240471     0.80200
N48         N  0.15033867  0.07260689  0.88017833    -0.78100
C49         C  0.12622892  0.07731178  0.85716028     0.82700
N50         N  0.09944949  0.05731323  0.85627834    -0.78000
C51         C  0.09643361  0.03307356  0.87848849     0.82800
N52         N  0.12038893  0.02884256  0.90138999    -0.79700
C53         C  0.11038627  0.25228665  0.89910258     0.80200
N54         N  0.13369889  0.27522902  0.89399553    -0.78100
C55         C  0.15655146  0.27178981  0.86982742     0.82700
N56         N  0.15559079  0.24504798  0.85005947    -0.78000
C57         C  0.13155567  0.22228853  0.85429489     0.82800
N58         N  0.10893254  0.22604431  0.87874985    -0.79700
O59         O  0.10067651  0.11771234  0.75527181    -0.71800
O60         O  0.10297692  0.18019540  0.82533231    -0.72000
O61         O  0.10122958  0.18362909  0.76029718    -0.71800
O62         O  0.10125258  0.11439085  0.82064498    -0.71900
O63         O  0.15496796  0.11738694  0.82533618    -0.71800
O64         O  0.15468296  0.17806297  0.75419579    -0.71800
O65         O  0.15653554  0.18327102  0.81921435    -0.71800
O66         O  0.15428459  0.11229856  0.76001973    -0.72000
V67         V  0.10246649  0.14894249  0.79037323     1.35200
V68         V  0.15422009  0.14772322  0.78968162     1.35200
C69         C  0.12735801  0.10295941  0.74735794     0.77500
C70         C  0.13021458  0.19389229  0.83238396     0.77500
C71         C  0.12776747  0.19275264  0.74697678     0.77400
C72         C  0.12783958  0.10427652  0.83366842     0.77400
C73         C  0.10796827  0.04360809  0.68080204     0.80200
N74         N  0.10544016  0.07011241  0.70107240    -0.78100
C75         C  0.12803526  0.07429952  0.72567853     0.82700
N76         N  0.15285533  0.05200752  0.72998604    -0.78000
C77         C  0.15472113  0.02517794  0.71068599     0.82800
N78         N  0.13232085  0.02128332  0.68627022    -0.79700
C79         C  0.14770571  0.24982183  0.67994882     0.80200
N80         N  0.12310968  0.27220941  0.68393202    -0.78100
C81         C  0.10005639  0.26915328  0.70780236     0.82700
N82         N  0.10155919  0.24304597  0.72798898    -0.78000
C83         C  0.12667828  0.22072937  0.72485090     0.82800
N84         N  0.14983316  0.22422217  0.70090867    -0.79700
C85         C  0.00940776  0.25480150  0.06676041     0.02300
C86         C  0.48659466  0.28627424  0.07144408     0.02300
C87         C  0.48028629  0.30437187  0.04285793    -0.18300
C88         C  0.49820043  0.29849779  0.01374651     0.02300
C89         C  0.02062376  0.26521237  0.00894277     0.02300
C90         C  0.02674274  0.24778663  0.03781334    -0.18300
H91         H  0.04555305  0.22866442  0.03783601     0.04300
H92         H  0.46138144  0.32337395  0.04336688     0.04300
O93         O  0.34403945  0.42894343  0.82967696    -0.71800
O94         O  0.40624640  0.42976649  0.75848077    -0.72000
O95         O  0.33911090  0.42895322  0.76465165    -0.71800
O96         O  0.41104574  0.43136562  0.82383500    -0.71900
O97         O  0.40902828  0.37886819  0.82950716    -0.71800
O98         O  0.34482888  0.37649660  0.75971181    -0.71800
O99         O  0.41217497  0.37744536  0.76398516    -0.71800
O100        O  0.34180137  0.37629554  0.82480869    -0.72000
V101        V  0.37518625  0.42884145  0.79416172     1.35200
V102        V  0.37699974  0.37818004  0.79448729     1.35200
C103        C  0.33084119  0.40219442  0.83760355     0.77500
C104        C  0.42100899  0.40345124  0.75046154     0.77500
C105        C  0.32955020  0.40259265  0.75209698     0.77400
C106        C  0.42201922  0.40588355  0.83726191     0.77400
C107        C  0.27241040  0.42034012  0.90548364     0.80200
N108        N  0.29868344  0.42236803  0.88465226    -0.78100
C109        C  0.30239407  0.40056437  0.85984661     0.82700
N110        N  0.27950405  0.37678846  0.85551410    -0.78000
C111        C  0.25244812  0.37534633  0.87531233     0.82800
N112        N  0.24924918  0.39703387  0.90037217    -0.79700
C113        C  0.48045164  0.38980997  0.90621740     0.80200
N114        N  0.00357402  0.40919752  0.89997113    -0.78100
C115        C  0.99923660  0.43184779  0.87626197     0.82700
N116        N  0.46964570  0.43521546  0.85897103    -0.78000
C117        C  0.44977176  0.40867140  0.86057554     0.82800
N118        N  0.45530806  0.38589429  0.88410156    -0.79700
C119        C  0.26992833  0.38133329  0.68593168     0.80200
N120        N  0.29599980  0.37951550  0.70728082    -0.78100
C121        C  0.30062148  0.40322333  0.73011410     0.82700
N122        N  0.27889347  0.42878761  0.73187726    -0.78000
C123        C  0.25279695  0.43069771  0.71086650     0.82800
N124        N  0.24870429  0.40713929  0.68788019    -0.79700
C125        C  0.47779665  0.42364213  0.68182567     0.80200
N126        N  0.00415511  0.39423524  0.67683400    -0.78100
C127        C  0.00164773  0.37179952  0.70102496     0.82700
N128        N  0.46977225  0.37617920  0.72743119    -0.78000
C129        C  0.44851149  0.40214135  0.72681399     0.82800
N130        N  0.45250528  0.42574581  0.70394123    -0.79700
C131        C  0.02300480  0.17092445  0.17988998     0.80200
N132        N  0.04986218  0.17326503  0.20010544    -0.78100
C133        C  0.05304594  0.15307471  0.22624835     0.82700
N134        N  0.02907513  0.13083018  0.23245255    -0.78000
C135        C  0.00147697  0.12940948  0.21329119     0.82800
N136        N  0.99886849  0.14929399  0.18698509    -0.79700
C137        C  0.23357266  0.13581437  0.18012312     0.80200
N138        N  0.20695213  0.13502047  0.20065325    -0.78100
C139        C  0.20204684  0.15886882  0.22345289     0.82700
N140        N  0.22392409  0.18376387  0.22582392    -0.78000
C141        C  0.25063398  0.18480069  0.20564071     0.82800
N142        N  0.25530200  0.16085498  0.18305733    -0.79700
O143        O  0.15950465  0.18477530  0.32451712    -0.71800
O144        O  0.09597245  0.18156631  0.25468087    -0.72000
O145        O  0.09237492  0.18278713  0.32008084    -0.71800
O146        O  0.16323296  0.18403604  0.25914715    -0.71900
O147        O  0.16005760  0.13148589  0.25387958    -0.71800
O148        O  0.10004503  0.13073481  0.32637794    -0.71800
O149        O  0.09303441  0.12922074  0.26133697    -0.71800
O150        O  0.16667256  0.13252329  0.31885246    -0.72000
V151        V  0.12777793  0.18245398  0.28958327     1.35200
V152        V  0.12991077  0.13185802  0.29007762     1.35200
C153        C  0.17539179  0.15904102  0.33184860     0.77500
C154        C  0.08212432  0.15478848  0.24790284     0.77500
C155        C  0.08451245  0.15662975  0.33404309     0.77400
C156        C  0.17365353  0.15798530  0.24598217     0.77400
C157        C  0.02836140  0.13386243  0.40203772     0.80200
N158        N  0.05471534  0.13378138  0.38113685    -0.78100
C159        C  0.05676260  0.15660340  0.35722554     0.82700
N160        N  0.03238643  0.17948252  0.35415131    -0.78000
C161        C  0.00578992  0.17933677  0.37445547     0.82800
N162        N  0.50118733  0.16103390  0.40340475    -0.79700
C163        C  0.23503715  0.17898014  0.39850846     0.80200
N164        N  0.20770407  0.18044749  0.37873313    -0.78100
C165        C  0.20469693  0.15918143  0.35316306     0.82700
N166        N  0.22886334  0.13652705  0.34748834    -0.78000
C167        C  0.25647428  0.13543451  0.36645043     0.82800
N168        N  0.25904156  0.15633788  0.39202580    -0.79700
C169        C  0.47779199  0.02593533  0.51665116     0.02300
C170        C  0.01070789  0.04755053  0.51219082     0.02300
C171        C  0.02777450  0.05067995  0.54190828    -0.18300
C172        C  0.02042253  0.03085342  0.56865481     0.02300
C173        C  0.49084667  0.00953289  0.57248937     0.02300
C174        C  0.47209927  0.00611216  0.54380296    -0.18300
H175        H  0.45526669  0.48981719  0.54269978     0.04300
H176        H  0.04736143  0.06847575  0.54417682     0.04300
C177        C  0.27996330  0.27951378  0.51898165     0.02300
C178        C  0.25675536  0.25396724  0.51756781     0.02300
C179        C  0.23752711  0.24720538  0.54511409    -0.18300
C180        C  0.24126045  0.26491369  0.57427549     0.02300
C181        C  0.26424882  0.29080653  0.57589865     0.02300
C182        C  0.28305781  0.29802097  0.54788694    -0.18300
H183        H  0.30027426  0.31817248  0.54856674     0.04300
H184        H  0.21934751  0.22788734  0.54382454     0.04300
C185        C  0.25717130  0.18538646  0.45464260    -0.05800
C186        C  0.23833509  0.19910063  0.42893557     0.00200
C187        C  0.22477068  0.23093833  0.43316089    -0.08400
C188        C  0.23134497  0.24772104  0.46269853    -0.05800
C189        C  0.25138406  0.23428821  0.48751152     0.00100
C190        C  0.26382845  0.20213164  0.48387045    -0.08300
C191        C  0.28399282  0.18374857  0.50950851     0.62100
H192        H  0.26690982  0.16074661  0.45211952     0.12700
H193        H  0.22052621  0.27167456  0.46689574     0.12800
C194        C  0.20399141  0.24757509  0.40688725     0.62300
F195        F  0.26754269  0.15549785  0.51756694    -0.22900
F196        F  0.28917154  0.20101925  0.53811544    -0.20200
F197        F  0.31469919  0.17546949  0.49646564    -0.19900
F198        F  0.17421326  0.23148535  0.40300320    -0.19900
F199        F  0.22113178  0.24756047  0.37748032    -0.20300
F200        F  0.19665909  0.27962737  0.41501149    -0.22900
C201        C  0.49897719  0.12389081  0.46137710    -0.05800
C202        C  0.02673735  0.11108905  0.43017569     0.00200
C203        C  0.03650591  0.07779752  0.42838938    -0.08400
C204        C  0.03225360  0.05824561  0.45631007    -0.05800
C205        C  0.01810975  0.07062193  0.48531731     0.00100
C206        C  0.49310998  0.10491195  0.48929529    -0.08300
C207        C  0.47299599  0.11911367  0.51760945     0.62100
H208        H  0.48835722  0.14816610  0.46049967     0.12700
H209        H  0.03928276  0.03276878  0.45556461     0.12800
C210        C  0.04997914  0.06241588  0.39705593     0.62300
F211        F  0.45829608  0.14864637  0.50960034    -0.22900
F212        F  0.49370752  0.12413016  0.54416818    -0.20200
F213        F  0.44802025  0.09818788  0.52655268    -0.19900
F214        F  0.08084217  0.07504170  0.38992288    -0.19900
F215        F  0.02833759  0.06847534  0.37132692    -0.20300
F216        F  0.05367805  0.02899787  0.39984187    -0.22900
C217        C  0.01459645  0.44196101  0.62807729    -0.05800
C218        C  0.48148290  0.44759337  0.65459953     0.00200
C219        C  0.46872096  0.48005201  0.65519494    -0.08400
C220        C  0.47272654  0.49949078  0.62707549    -0.05800
C221        C  0.48989346  0.48813304  0.59926363     0.00100
C222        C  0.01932727  0.46116467  0.60013737    -0.08300
C223        C  0.03915983  0.94457785  0.57489148     0.62100
H224        H  0.03415489  0.42479957  0.63453755     0.12700
H225        H  0.46269138  0.52404878  0.62661558     0.12800
C226        C  0.45219709  0.49490401  0.68534338     0.62300
F227        F  0.03370633  0.91291469  0.56464823    -0.22900
F228        F  0.06877186  0.94542359  0.59217211    -0.20200
F229        F  0.05149561  0.47130268  0.55083689    -0.19900
F230        F  0.47227389  0.49028120  0.71257065    -0.19900
F231        F  0.42162480  0.48074466  0.69043564    -0.20300
F232        F  0.44695159  0.52807729  0.68195803    -0.22900
C233        C  0.23738173  0.32902936  0.61506301    -0.05800
C234        C  0.26647703  0.31246789  0.60531026     0.00200
C235        C  0.29641954  0.31816012  0.62287497    -0.08400
C236        C  0.29616050  0.34113263  0.64844345    -0.05800
C237        C  0.26693346  0.35716417  0.65872469     0.00100
C238        C  0.23654635  0.35009194  0.64235293    -0.08300
C239        C  0.20305866  0.36361604  0.65358511     0.62100
H240        H  0.21499344  0.32551226  0.60077382     0.12700
H241        H  0.31944248  0.34633721  0.66076538     0.12800
C242        C  0.32937068  0.30093690  0.61655093     0.62300
F243        F  0.17687675  0.34784150  0.63841843    -0.22900
F244        F  0.20044342  0.39630266  0.64604594    -0.20200
F245        F  0.19955364  0.35939496  0.68706739    -0.19900
F246        F  0.32688210  0.27506409  0.59520940    -0.19900
F247        F  0.34183690  0.28893066  0.64581554    -0.20300
F248        F  0.35174408  0.32292993  0.60397015    -0.22900
C249        C  0.03162602  0.22368160  0.15231786    -0.05800
C250        C  0.02030840  0.19153577  0.15018078     0.00200
C251        C  0.00798727  0.17972831  0.11965743    -0.08400
C252        C  0.00584192  0.20127747  0.09308286    -0.05800
C253        C  0.01580365  0.23377429  0.09570955     0.00100
C254        C  0.03019431  0.24493357  0.12545320    -0.08300
C255        C  0.04524900  0.27828844  0.13030334     0.62100
H256        H  0.04184930  0.23240186  0.17534718     0.12700
H257        H  0.49691776  0.19928604  0.06953107     0.12800
C258        C  0.49727694  0.14815882  0.11104378     0.62300
F259        F  0.02764113  0.29500036  0.15430140    -0.22900
F260        F  0.04541601  0.29668130  0.10209584    -0.20200
F261        F  0.07787892  0.27466028  0.14058047    -0.19900
F262        F  0.46764964  0.14116335  0.12641161    -0.19900
F263        F  0.02197950  0.12363982  0.12618449    -0.20300
F264        F  0.49266509  0.14322747  0.07769212    -0.22900
C265        C  0.45830223  0.34871118  0.94483905    -0.05800
C266        C  0.48593724  0.36569744  0.93295320     0.00200
C267        C  0.01916819  0.35160131  0.94365980    -0.08400
C268        C  0.02008209  0.32969395  0.97000187    -0.05800
C269        C  0.49264940  0.32034736  0.98504133     0.00100
C270        C  0.46115016  0.32536638  0.96988222    -0.08300
C271        C  0.42971694  0.30723100  0.97892777     0.62100
H272        H  0.43401495  0.35348154  0.93419999     0.12700
H273        H  0.04309343  0.32602312  0.98331659     0.12800
C274        C  0.05170824  0.36649895  0.93246937     0.62300
F275        F  0.41374795  0.29703144  0.95061914    -0.22900
F276        F  0.40864594  0.32801900  0.99601078    -0.20200
F277        F  0.43569666  0.27991896  0.99773196    -0.19900
F278        F  0.05252466  0.39904256  0.94121039    -0.19900
F279        F  0.05498329  0.36323528  0.89881000    -0.20300
F280        F  0.07902490  0.35132376  0.94670648    -0.22900
C281        C  0.05441497  0.29753547  0.67952560    -0.05800
C282        C  0.07207849  0.29273733  0.70883809     0.00200
C283        C  0.06489044  0.31256312  0.73650626    -0.08400
C284        C  0.04144018  0.33809207  0.73303970    -0.05800
C285        C  0.02523211  0.34401359  0.70300354     0.00100
C286        C  0.03077493  0.32266020  0.67614693    -0.08300
C287        C  0.50291780  0.32742060  0.64819337     0.62100
H288        H  0.05978935  0.28163377  0.65889320     0.12700
H289        H  0.03606946  0.35412161  0.75359755     0.12800
C290        C  0.08247660  0.30734875  0.76908388     0.62300
F291        F  0.50869841  0.30134197  0.62721319    -0.22900
F292        F  0.51015442  0.35544318  0.63138327    -0.20200
F293        F  0.46957295  0.32754916  0.65645885    -0.19900
F294        F  0.11648851  0.30972760  0.76491172    -0.19900
F295        F  0.07511954  0.27683123  0.78102681    -0.20300
F296        F  0.07270026  0.33014320  0.79240207    -0.22900
C297        C  0.20440246  0.24341001  0.65718276    -0.05800
C298        C  0.17107213  0.25267926  0.65215083     0.00200
C299        C  0.16068669  0.26332090  0.62053534    -0.08400
C300        C  0.18463593  0.26603999  0.59585114    -0.05800
C301        C  0.21804725  0.25792802  0.60131200     0.00100
C302        C  0.22802746  0.24498623  0.63193347    -0.08300
C303        C  0.26263123  0.23180116  0.63907341     0.62100
H304        H  0.21207133  0.23451616  0.68106183     0.12700
H305        H  0.17764391  0.27554499  0.57203416     0.12800
C306        C  0.12466236  0.27141621  0.61215644     0.62300
F307        F  0.27805579  0.25182690  0.66167599    -0.22900
F308        F  0.28226857  0.22933060  0.61138228    -0.20200
F309        F  0.26023217  0.20094211  0.65222350    -0.19900
F310        F  0.11542202  0.30055912  0.62680540    -0.19900
F311        F  0.10415331  0.24678470  0.62272962    -0.20300
F312        F  0.11987823  0.27466879  0.57866098    -0.22900
C313        C  0.20184549  0.99668432  0.68487368    -0.05800
C314        C  0.18283392  0.00198797  0.71324291     0.00200
C315        C  0.18344432  0.48671591  0.74022042    -0.08400
C316        C  0.20834489  0.46227369  0.73923141    -0.05800
C317        C  0.22948051  0.45866242  0.71202262     0.00100
C318        C  0.22728426  0.48103187  0.68583622    -0.08300
C319        C  0.25222802  0.48033640  0.65789370     0.62100
H320        H  0.19668290  0.01141725  0.66349527     0.12700
H321        H  0.21100858  0.44528526  0.75932676     0.12800
C322        C  0.16072958  0.48982143  0.76984660     0.62300
F323        F  0.24139378  0.99338894  0.63037543    -0.22900
F324        F  0.24809287  0.45260832  0.63905845    -0.20200
F325        F  0.28418828  0.48058626  0.67051358    -0.19900
F326        F  0.12793208  0.48671768  0.76016063    -0.19900
F327        F  0.16492293  0.51989140  0.78459349    -0.20300
F328        F  0.16752859  0.46617895  0.79306050    -0.22900
C329        C  0.05266433  0.05128801  0.65440724    -0.05800
C330        C  0.08557322  0.03961920  0.65196693     0.00200
C331        C  0.09651669  0.02537198  0.62176602    -0.08400
C332        C  0.07377089  0.02267023  0.59587266    -0.05800
C333        C  0.04109405  0.03413469  0.59846480     0.00100
C334        C  0.03027557  0.04941049  0.62790871    -0.08300
C335        C  0.99395025  0.56548111  0.63014116     0.62100
H336        H  0.04438776  0.06245128  0.67718169     0.12700
H337        H  0.08140611  0.01163152  0.57285171     0.12800
C338        C  0.13212111  0.01391826  0.61572748     0.62300
F339        F  0.99440067  0.59748146  0.64087351    -0.22900
F340        F  0.97897059  0.54676862  0.65390921    -0.20200
F341        F  0.48484884  0.58143291  0.60255748    -0.19900
F342        F  0.13866196  0.98601179  0.63352276    -0.19900
F343        F  0.15401073  0.03818022  0.62456419    -0.20300
F344        F  0.13787165  0.00656114  0.58299122    -0.22900
C345        C  0.23887234  0.31700710  0.86818832    -0.05800
C346        C  0.22750468  0.34938564  0.87057463     0.00200
C347        C  0.19291739  0.35613723  0.86862218    -0.08400
C348        C  0.17078039  0.32991354  0.86679313    -0.05800
C349        C  0.18199833  0.29742365  0.86612213     0.00100
C350        C  0.21666275  0.29072556  0.86606364    -0.08300
C351        C  0.23017316  0.25609044  0.86524502     0.62100
H352        H  0.26541725  0.31241358  0.86907347     0.12700
H353        H  0.14422267  0.33459104  0.86659642     0.12800
C354        C  0.17931099  0.39077991  0.86764733     0.62300
F355        F  0.26450527  0.25507522  0.86775239    -0.22900
F356        F  0.22147068  0.24131005  0.83594912    -0.20200
F357        F  0.21726551  0.23864127  0.89113321    -0.19900
F358        F  0.19589937  0.40834245  0.84399935    -0.19900
F359        F  0.18333304  0.40565112  0.89782788    -0.20300
F360        F  0.14574327  0.39164018  0.86005509    -0.22900
C361        C  0.07655596  0.26586633  0.98511795    -0.05800
C362        C  0.04284051  0.25878319  0.98054030     0.00200
C363        C  0.03166880  0.24782330  0.94939371    -0.08400
C364        C  0.05438413  0.24686571  0.92325166    -0.05800
C365        C  0.08789632  0.25501615  0.92762409     0.00100
C366        C  0.09950601  0.26393137  0.95932040    -0.08300
C367        C  0.13587550  0.27108387  0.96639830     0.62100
H368        H  0.08459828  0.27402989  0.00915256     0.12700
H369        H  0.04587821  0.23933096  0.89913605     0.12800
C370        C  0.99668509  0.23625576  0.94238193     0.62300
F371        F  0.14218614  0.27308467  0.99976158    -0.22900
F372        F  0.14438470  0.30051647  0.95261765    -0.20200
F373        F  0.15595486  0.24653635  0.95369547    -0.19900
F374        F  0.47848267  0.25310490  0.95381543    -0.19900
F375        F  0.50091974  0.21235288  0.98357286    -0.20300
F376        F  0.50326764  0.21082411  0.92871243    -0.22900
C377        C  0.02027043  0.48344089  0.89890126    -0.05800
C378        C  0.02175750  0.45974390  0.87406811     0.00200
C379        C  0.04486822  0.46277026  0.84807175    -0.08400
C380        C  0.06756605  0.48856116  0.84912624    -0.05800
C381        C  0.06840006  0.01013006  0.87688389     0.00100
C382        C  0.04708527  0.00494852  0.90398814    -0.08300
C383        C  0.04936783  0.02542594  0.93507503     0.62100
H384        H  0.51156654  0.47646826  0.93047771     0.12700
H385        H  0.08655997  0.49061710  0.83043247     0.12800
C386        C  0.04609992  0.43836801  0.81995108     0.62300
F387        F  0.02312410  0.01967796  0.95614582    -0.22900
F388        F  0.04874225  0.05811765  0.92716015    -0.20200
F389        F  0.07849588  0.01827152  0.95165533    -0.19900
F390        F  0.01646335  0.43942345  0.80272458    -0.19900
F391        F  0.05112075  0.40733589  0.83210194    -0.20300
F392        F  0.07154412  0.44491103  0.79818287    -0.22900
C393        C  0.25686729  0.45837176  0.98981866    -0.05800
C394        C  0.26853478  0.48990688  0.98468231     0.00200
C395        C  0.28273864  0.49810980  0.95417853    -0.08400
C396        C  0.28202095  0.47503954  0.92873568    -0.05800
C397        C  0.26957259  0.44353515  0.93339133     0.00100
C398        C  0.25721273  0.43475150  0.96480424    -0.08300
C399        C  0.24482655  0.40081995  0.97259812     0.62100
H400        H  0.24645655  0.45276317  0.01361456     0.12700
H401        H  0.29196569  0.48162963  0.90498669     0.12800
C402        C  0.29983184  0.02864893  0.94889927     0.62300
F403        F  0.23875856  0.39698721  0.00580071    -0.22900
F404        F  0.26836884  0.37772669  0.96347751    -0.20200
F405        F  0.21537860  0.39516365  0.95615304    -0.19900
F406        F  0.33115984  0.02241126  0.93617709    -0.19900
F407        F  0.30399530  0.04622236  0.97753855    -0.20300
F408        F  0.28201805  0.04735151  0.92675890    -0.22900
C409        C  0.25944856  0.12065981  0.12697185    -0.05800
C410        C  0.23812045  0.11164517  0.15270928     0.00200
C411        C  0.22206836  0.08087548  0.15063031    -0.08400
C412        C  0.22783519  0.06111434  0.12273246    -0.05800
C413        C  0.24915324  0.07055666  0.09741624     0.00100
C414        C  0.26492423  0.10108618  0.09925737    -0.08300
C415        C  0.28711906  0.11505632  0.07277709     0.62100
H416        H  0.27183791  0.14391959  0.12787463     0.12700
H417        H  0.21544634  0.03795225  0.12021209     0.12800
C418        C  0.19931210  0.06825609  0.17735131     0.62300
F419        F  0.27353154  0.14420977  0.06209392    -0.22900
F420        F  0.29102388  0.09503725  0.04578400    -0.20200
F421        F  0.31824475  0.12094325  0.08586581    -0.19900
F422        F  0.17066220  0.08710729  0.17887914    -0.19900
F423        F  0.21555906  0.06893883  0.20729144    -0.20300
F424        F  0.18983087  0.03644398  0.17147845    -0.22900
C425        C  0.18897190  0.07120976  0.94101361    -0.05800
C426        C  0.17230976  0.04365968  0.92914299     0.00200
C427        C  0.17819305  0.01311577  0.94438942    -0.08400
C428        C  0.19773881  0.01209962  0.97282678    -0.05800
C429        C  0.21501097  0.03928817  0.98438842     0.00100
C430        C  0.21072074  0.06964346  0.96812339    -0.08300
C431        C  0.22837289  0.10053644  0.97890749     0.62100
H432        H  0.18418167  0.09438154  0.92932090     0.12700
H433        H  0.19982302  0.98956191  0.98627407     0.12800
C434        C  0.16538397  0.98116736  0.93049999     0.62300
F435        F  0.21490450  0.11230611  0.00782533    -0.22900
F436        F  0.22526985  0.12492336  0.95575167    -0.20200
F437        F  0.26186219  0.09448554  0.98331649    -0.19900
F438        F  0.16910336  0.98044359  0.89674277    -0.19900
F439        F  0.13230283  0.97736703  0.93854610    -0.20300
F440        F  0.18288594  0.95480445  0.94295476    -0.22900
C441        C  0.41784770  0.08118937  0.21559226    -0.05800
C442        C  0.42937791  0.04895580  0.21847563     0.00200
C443        C  0.46399226  0.04271177  0.22135980    -0.08400
C444        C  0.48595817  0.06912549  0.21933741    -0.05800
C445        C  0.47439436  0.10110793  0.21425989     0.00100
C446        C  0.43972172  0.10752049  0.21371211    -0.08300
C447        C  0.42557709  0.14182983  0.21105406     0.62100
H448        H  0.39129755  0.08553462  0.21373852     0.12700
H449        H  0.01288281  0.06731937  0.22641592     0.12800
C450        C  0.47783034  0.00837985  0.22496757     0.62300
F451        F  0.39204538  0.14299216  0.21870212    -0.22900
F452        F  0.42924994  0.15287469  0.17936592    -0.20200
F453        F  0.44186377  0.16249602  0.23247432    -0.19900
F454        F  0.46173051  0.49325876  0.17839638    -0.19900
F455        F  0.46720784  0.99528021  0.25427633    -0.20300
F456        F  0.51226085  0.00774698  0.22501728    -0.22900
C457        C  0.28563199  0.00391413  0.12468871    -0.05800
C458        C  0.30043701  0.01806142  0.09709737     0.00200
C459        C  0.33490745  0.02487359  0.09751379    -0.08400
C460        C  0.35293988  0.01803368  0.12607168    -0.05800
C461        C  0.33795775  0.00523484  0.15425456     0.00100
C462        C  0.30364888  0.99778954  0.15364967    -0.08300
C463        C  0.28578101  0.98442857  0.18340180     0.62100
H464        H  0.25958051  0.99769998  0.12330340     0.12700
H465        H  0.37932813  0.02326668  0.12642907     0.12800
C466        C  0.35438962  0.03957536  0.06937926     0.62300
F467        F  0.25176828  0.98287344  0.17843636    -0.22900
F468        F  0.29126625  0.00429092  0.21035816    -0.20200
F469        F  0.29376061  0.46253415  0.19042549    -0.19900
F470        F  0.33534163  0.04703886  0.04226990    -0.19900
F471        F  0.37903780  0.01785229  0.05967764    -0.20300
F472        F  0.36922379  0.06794563  0.08010354    -0.22900
C473        C  0.29418043  0.21519590  0.23567448    -0.05800
C474        C  0.27411127  0.21216325  0.20761241     0.00200
C475        C  0.27711947  0.23483735  0.18177539    -0.08400
C476        C  0.30118882  0.25925701  0.18437815    -0.05800
C477        C  0.32190985  0.26178611  0.21193839     0.00100
C478        C  0.31847718  0.23959889  0.23815439    -0.08300
C479        C  0.34134878  0.24092163  0.26779879     0.62100
H480        H  0.29131749  0.19766251  0.25520469     0.12700
H481        H  0.30460048  0.27625363  0.16445296     0.12800
C482        C  0.25482589  0.23340689  0.15170553     0.62300
F483        F  0.33518958  0.21597775  0.28957704    -0.22900
F484        F  0.33678135  0.27015153  0.28423417    -0.20200
F485        F  0.37413007  0.23821201  0.25778277    -0.19900
F486        F  0.22184766  0.23311022  0.16128981    -0.19900
F487        F  0.26187823  0.20561635  0.13370369    -0.20300
F488        F  0.25925693  0.25994033  0.13144349    -0.22900
C489        C  0.44703414  0.26484634  0.11160132    -0.05800
C490        C  0.46528362  0.29158051  0.10088085     0.00200
C491        C  0.46243870  0.32157257  0.11827874    -0.08400
C492        C  0.44060267  0.32350803  0.14521763    -0.05800
C493        C  0.42295030  0.29638019  0.15644068     0.00100
C494        C  0.42759739  0.26591872  0.14008006    -0.08300
C495        C  0.41334162  0.23404395  0.15239031     0.62100
H496        H  0.44830333  0.24258715  0.09733335     0.12700
H497        H  0.43742731  0.34671146  0.15765927     0.12800
C498        C  0.97866834  0.34613113  0.10436223     0.62300
F499        F  0.42839585  0.20739362  0.13739629    -0.22900
F500        F  0.37968776  0.23270925  0.14560365    -0.20200
F501        F  0.41867258  0.23113365  0.18581642    -0.19900
F502        F  0.00240341  0.34184316  0.08028816    -0.19900
F503        F  0.99481204  0.35649564  0.13247821    -0.20300
F504        F  0.95686048  0.37039111  0.09437642    -0.22900
C505        C  0.42814220  0.23316518  0.35792540    -0.05800
C506        C  0.43523446  0.26251096  0.37403013     0.00200
C507        C  0.46606695  0.26650232  0.39020739    -0.08400
C508        C  0.48863857  0.24011756  0.39086158    -0.05800
C509        C  0.48093359  0.21034046  0.37590272     0.00100
C510        C  0.45086640  0.20691998  0.35829586    -0.08300
C511        C  0.44303424  0.17555930  0.34020841     0.62100
H512        H  0.40432171  0.23073030  0.34576742     0.12700
H513        H  0.00703317  0.23868302  0.39899590     0.12800
C514        C  0.47440378  0.29818703  0.40749822     0.62300
F515        F  0.41318353  0.17768889  0.32338332    -0.22900
F516        F  0.44111606  0.15023176  0.36232225    -0.20200
F517        F  0.46786209  0.16871148  0.31766586    -0.19900
F518        F  0.45251631  0.30348199  0.43318136    -0.19900
F519        F  0.47180909  0.32372859  0.38564316    -0.20300
F520        F  0.99430402  0.29166585  0.41904626    -0.22900
C521        C  0.35429063  0.28811873  0.46267597    -0.05800
C522        C  0.33976190  0.30300324  0.43511186     0.00200
C523        C  0.30548777  0.31153469  0.43592447    -0.08400
C524        C  0.28718357  0.30420268  0.46432737    -0.05800
C525        C  0.30141123  0.28712893  0.49067745     0.00100
C526        C  0.33567087  0.27891525  0.48991377    -0.08300
C527        C  0.35415876  0.26039212  0.51656572     0.62100
H528        H  0.38072753  0.28238574  0.46256030     0.12700
H529        H  0.26129262  0.31160735  0.46614440     0.12800
C530        C  0.28797329  0.32744301  0.40705894     0.62300
F531        F  0.37256476  0.23529316  0.50253963    -0.22900
F532        F  0.33343477  0.24675102  0.53938857    -0.20200
F533        F  0.37560397  0.28130126  0.53252055    -0.19900
F534        F  0.29298097  0.30900155  0.37895232    -0.19900
F535        F  0.30020178  0.35840116  0.40247656    -0.20300
F536        F  0.25400788  0.33017637  0.41207403    -0.22900
C537        C  0.33816371  0.08818891  0.36340937    -0.05800
C538        C  0.32673593  0.05606938  0.36106463     0.00200
C539        C  0.29227988  0.05048087  0.35656298    -0.08400
C540        C  0.27027917  0.07737767  0.35703897    -0.05800
C541        C  0.28161975  0.10926304  0.36179497     0.00100
C542        C  0.31623965  0.11503983  0.36348137    -0.08300
C543        C  0.33019339  0.14926471  0.36452145     0.62100
H544        H  0.36461919  0.09205353  0.36622027     0.12700
H545        H  0.24375395  0.07357040  0.35506759     0.12800
C546        C  0.27849485  0.01642349  0.35266896     0.62300
F547        F  0.36430076  0.14909359  0.36024076    -0.22900
F548        F  0.32352520  0.16388664  0.39444680    -0.20200
F549        F  0.31618396  0.16764778  0.33963324    -0.19900
F550        F  0.28713641  0.49780115  0.39083585    -0.19900
F551        F  0.28552064  0.49766499  0.33543103    -0.20300
F552        F  0.24410278  0.01661123  0.35092173    -0.22900
C553        C  0.42595453  0.03581685  0.48678093    -0.05800
C554        C  0.45725583  0.02077821  0.48709622     0.00200
C555        C  0.46670005  0.99984270  0.46091742    -0.08400
C556        C  0.44541364  0.99729200  0.43371358    -0.05800
C557        C  0.41463613  0.01378677  0.43244889     0.00100
C558        C  0.40408167  0.03254686  0.46017917    -0.08300
C559        C  0.40450656  0.58011050  0.43625992     0.62100
H560        H  0.44018440  0.57054942  0.49094910     0.12700
H561        H  0.45301448  0.98200800  0.41322224     0.12800
C562        C  0.49792248  0.97872141  0.46059258     0.62300
F563        F  0.41569040  0.60653813  0.45425873    -0.22900
F564        F  0.37052606  0.57827570  0.44091377    -0.20200
F565        F  0.36761909  0.07495612  0.44231086    -0.19900
F566        F  0.02468400  0.97346276  0.47083476    -0.19900
F567        F  0.99421828  0.93897495  0.44107974    -0.20300
F568        F  0.48884513  0.94636465  0.45920191    -0.22900
C569        C  0.39641246  0.51369935  0.39995288     0.80200
N570        N  0.37101121  0.53497190  0.39466537    -0.78100
C571        C  0.34819932  0.53010186  0.37072005     0.82700
N572        N  0.35061218  0.50299038  0.35176139    -0.78000
C573        C  0.37546487  0.97819867  0.35774105     0.82800
N574        N  0.39605664  0.98219004  0.38389690    -0.79700
O575        O  0.40507994  0.87112098  0.26088467    -0.71800
O576        O  0.40412364  0.93427559  0.33055033    -0.72000
O577        O  0.40575922  0.86840441  0.32656017    -0.71800
O578        O  0.40488108  0.93680772  0.26547172    -0.71900
O579        O  0.35134901  0.93229504  0.25994612    -0.71800
O580        O  0.35213290  0.87249723  0.33201988    -0.71800
O581        O  0.35047054  0.93820286  0.32490013    -0.71800
O582        O  0.35157523  0.86680644  0.26644892    -0.72000
V583        V  0.40403888  0.90254248  0.29590606     1.35200
V584        V  0.35228389  0.90235911  0.29586973     1.35200
C585        C  0.37813113  0.85740606  0.25281382     0.77500
C586        C  0.37692985  0.94866007  0.33748547     0.77500
C587        C  0.37947985  0.85915347  0.34031273     0.77400
C588        C  0.37821331  0.94624359  0.25221425     0.77400
C589        C  0.36217978  0.80500411  0.41113664     0.80200
N590        N  0.35829342  0.82869891  0.38809932    -0.78100
C591        C  0.38192327  0.83289006  0.36459831     0.82700
N592        N  0.40920087  0.81299977  0.36387551    -0.78000
C593        C  0.41318247  0.78933797  0.38659588     0.79200
N594        N  0.38968814  0.78562277  0.40979729    -0.79700
C595        C  0.39760237  0.80236396  0.18248186     0.80200
N596        N  0.37026038  0.78325524  0.18297537    -0.78100
C597        C  0.34649222  0.78694882  0.20631770     0.82700
N598        N  0.34958598  0.81122320  0.22867696    -0.78000
C599        C  0.37657038  0.83084480  0.22860244     0.82800
N600        N  0.40066651  0.82633733  0.20556386    -0.79700
C601        C  0.35872899  0.50736516  0.18220512     0.80200
N602        N  0.38337701  0.52919183  0.18673119    -0.78100
C603        C  0.40635419  0.52517118  0.21057327     0.82700
N604        N  0.40461735  0.49897686  0.23047383    -0.78000
C605        C  0.37921229  0.97394138  0.22981529     0.82800
N606        N  0.35740558  0.97664674  0.20445704    -0.79700
C607        C  0.25208706  0.55375264  0.06651460     0.02300
C608        C  0.27821572  0.53056535  0.06695606     0.02300
C609        C  0.28315021  0.51027308  0.03972619    -0.18300
C610        C  0.26342367  0.51359477  0.01162794     0.02300
C611        C  0.23755741  0.53729755  0.01088532     0.02300
C612        C  0.23170071  0.55651890  0.03881795    -0.18300
H613        H  0.21116783  0.57379539  0.03908814     0.04300
H614        H  0.30150018  0.98543965  0.04034101     0.04300
C615        C  0.14500387  0.54946654  0.90221264     0.80200
N616        N  0.14769793  0.57461594  0.88067115    -0.78100
C617        C  0.12374102  0.57970108  0.85762706     0.82700
N618        N  0.09731541  0.55938058  0.85582139    -0.78000
C619        C  0.09456153  0.53447133  0.87718431     0.82800
N620        N  0.11819913  0.52991567  0.90030677    -0.79700
C621        C  0.10827297  0.75644179  0.90150386     0.80200
N622        N  0.13146885  0.77928637  0.89532962    -0.78100
C623        C  0.15341009  0.77539050  0.87043042     0.82700
N624        N  0.15174926  0.74844780  0.85108803    -0.78000
C625        C  0.12783740  0.72583894  0.85633056     0.82800
N626        N  0.10608047  0.72993544  0.88148568    -0.79700
O627        O  0.09616054  0.62112050  0.75758416    -0.71800
O628        O  0.09879162  0.68325496  0.82820271    -0.72000
O629        O  0.09546701  0.68682348  0.76316040    -0.71800
O630        O  0.09789795  0.61744165  0.82287401    -0.71900
O631        O  0.15164221  0.62108268  0.82674571    -0.71800
O632        O  0.14882351  0.68192258  0.75577099    -0.71800
O633        O  0.15213578  0.68701957  0.82086044    -0.71800
O634        O  0.14989877  0.61641664  0.76153792    -0.72000
V635        V  0.09800462  0.65213621  0.79298710     1.35200
V636        V  0.14973608  0.65162794  0.79129292     1.35200
C637        C  0.12299792  0.60695691  0.74901124     0.77500
C638        C  0.12603008  0.69726886  0.83467531     0.77500
C639        C  0.12141831  0.69587690  0.74881799     0.77400
C640        C  0.12483006  0.60742483  0.83517559     0.77400
C641        C  0.10684545  0.55152129  0.67844888     0.80200
N642        N  0.10300889  0.57656226  0.70032452    -0.78100
C643        C  0.12415825  0.57910321  0.72633502     0.82700
N644        N  0.14876363  0.55655057  0.73049475    -0.78000
C645        C  0.15192461  0.53107404  0.70952532     0.82800
N646        N  0.13108934  0.52888582  0.68351902    -0.79700
C647        C  0.13702345  0.74754183  0.67672438     0.80200
N648        N  0.11233007  0.76996542  0.67992047    -0.78100
C649        C  0.09068872  0.76860327  0.70518543     0.82700
N650        N  0.09367719  0.74447392  0.72759816    -0.78000
C651        C  0.11893567  0.72227787  0.72505135     0.82800
N652        N  0.14065429  0.72394645  0.69972072    -0.79700
C653        C  0.00611949  0.75988953  0.06851576     0.02300
C654        C  0.49184566  0.78987036  0.07477275     0.02300
C655        C  0.48601947  0.80862093  0.04647379    -0.18300
C656        C  0.50262056  0.80171578  0.01680411     0.02300
C657        C  0.01906546  0.77110430  0.01140580     0.02300
C658        C  0.02458702  0.75353424  0.04017610    -0.18300
H659        H  0.04344735  0.73445985  0.04044587     0.04300
H660        H  0.46776817  0.82821402  0.04730017     0.04300
O661        O  0.34580066  0.92645484  0.82971887    -0.71800
O662        O  0.40803392  0.92684130  0.75921408    -0.72000
O663        O  0.34121002  0.92505707  0.76473926    -0.71800
O664        O  0.41282633  0.92891154  0.82437013    -0.71900
O665        O  0.41082593  0.87651199  0.83093760    -0.71800
O666        O  0.34785989  0.87264145  0.76036668    -0.71800
O667        O  0.41504530  0.87471091  0.76553622    -0.71800
O668        O  0.34338898  0.87376237  0.82544007    -0.72000
V669        V  0.37704332  0.92589278  0.79457457     1.35200
V670        V  0.37930316  0.87526391  0.79559902     1.35200
C671        C  0.33216258  0.89997166  0.83752697     0.77500
C672        C  0.42337590  0.90079351  0.75172139     0.77500
C673        C  0.33234974  0.89838470  0.75222133     0.77400
C674        C  0.42397929  0.90357985  0.83802762     0.77400
C675        C  0.27091099  0.92125494  0.90191635     0.80200
N676        N  0.29857851  0.92167542  0.88282376    -0.78100
C677        C  0.30260900  0.89950262  0.85835985     0.82700
N678        N  0.27867456  0.87705241  0.85262416    -0.78000
C679        C  0.25024075  0.87744752  0.87053988     0.82800
N680        N  0.24668171  0.89938771  0.89531599    -0.79700
C681        C  0.48454975  0.88863517  0.90556961     0.80200
N682        N  0.00083542  0.91081844  0.89856427    -0.78100
C683        C  0.99670225  0.93337042  0.87480368     0.82700
N684        N  0.47295059  0.93236521  0.85681707    -0.78000
C685        C  0.45252605  0.90647719  0.86031433     0.82800
N686        N  0.45846257  0.88447356  0.88453680    -0.79700
C687        C  0.27148656  0.87429426  0.68799421     0.80200
N688        N  0.29827577  0.87329395  0.70856878    -0.78100
C689        C  0.30363040  0.89822276  0.73002240     0.82700
N690        N  0.28214122  0.92396768  0.73100824    -0.78000
C691        C  0.25565303  0.92513686  0.71053981     0.82800
N692        N  0.25067265  0.90043870  0.68909526    -0.79700
C693        C  0.47915758  0.92269481  0.68319912     0.80200
N694        N  0.99521691  0.89243339  0.67652057    -0.78100
C695        C  0.99152844  0.86975305  0.70017507     0.82700
N696        N  0.47337593  0.87547009  0.72929650    -0.78000
C697        C  0.45090247  0.90033733  0.72828656     0.82800
N698        N  0.45376744  0.92388098  0.70519908    -0.79700
C699        C  0.01771320  0.67025316  0.17734863     0.80200
N700        N  0.04433612  0.67288079  0.19781241    -0.78100
C701        C  0.04874188  0.65141384  0.22268138     0.82700
N702        N  0.02610144  0.62748913  0.22743895    -0.78000
C703        C  0.99868361  0.62555364  0.20802804     0.82800
N704        N  0.99487902  0.64683708  0.18293587    -0.79700
C705        C  0.22868100  0.63948685  0.17759955     0.80200
N706        N  0.20252290  0.63778383  0.19848168    -0.78100
C707        C  0.19668761  0.66186317  0.22073934     0.82700
N708        N  0.21692964  0.68818125  0.22194659    -0.78000
C709        C  0.24319244  0.69016620  0.20121216     0.82800
N710        N  0.24911073  0.66554366  0.17976995    -0.79700
O711        O  0.15398227  0.68400332  0.32260722    -0.71800
O712        O  0.09052458  0.68079838  0.25226304    -0.72000
O713        O  0.08666936  0.68081862  0.31739980    -0.71800
O714        O  0.15764901  0.68508535  0.25722429    -0.71900
O715        O  0.15631493  0.63250829  0.25117628    -0.71800
O716        O  0.09494983  0.62869037  0.32235199    -0.71800
O717        O  0.08939149  0.62819819  0.25739574    -0.71800
O718        O  0.16189259  0.63194615  0.31627407    -0.72000
V719        V  0.12227368  0.68182067  0.28738297     1.35200
V720        V  0.12562574  0.63123990  0.28681594     1.35200
C721        C  0.17020420  0.65833727  0.32977504     0.77500
C722        C  0.07763651  0.65371866  0.24462879     0.77500
C723        C  0.07863470  0.65412797  0.33006610     0.77400
C724        C  0.16887170  0.65962229  0.24366017     0.77400
C725        C  0.02073557  0.63028791  0.39573696     0.80200
N726        N  0.04772643  0.63060018  0.37580048    -0.78100
C727        C  0.04973823  0.65307087  0.35164695     0.82700
N728        N  0.02457506  0.67497470  0.34721254    -0.78000
C729        C  0.99716006  0.67455224  0.36660298     0.82800
N730        N  0.50663376  0.66278846  0.40510757    -0.79700
C731        C  0.22926346  0.67885335  0.39700448     0.80200
N732        N  0.20242938  0.68054478  0.37656245    -0.78100
C733        C  0.19920353  0.65828221  0.35184840     0.82700
N734        N  0.22277126  0.63453718  0.34780149    -0.78000
C735        C  0.24987877  0.63333266  0.36759759     0.82800
N736        N  0.25255636  0.65517712  0.39233452    -0.79700
C737        C  0.48100242  0.52685228  0.51553562     0.02300
C738        C  0.00702778  0.54818232  0.50943713     0.02300
C739        C  0.02546697  0.55330879  0.53807663    -0.18300
C740        C  0.02087037  0.53405414  0.56587199     0.02300
C741        C  0.49442282  0.51080458  0.57167358     0.02300
C742        C  0.47497382  0.50756017  0.54323319    -0.18300
H743        H  0.45294176  0.98782946  0.54247970     0.04300
H744        H  0.04393702  0.57230551  0.53868575     0.04300
C745        C  0.27398685  0.77741990  0.51989764     0.02300
C746        C  0.24939833  0.75333821  0.51622329     0.02300
C747        C  0.22752176  0.74777542  0.54211395    -0.18300
C748        C  0.23141872  0.76331397  0.57248341     0.02300
C749        C  0.25656579  0.78701354  0.57667276     0.02300
C750        C  0.27670506  0.79455101  0.54964463    -0.18300
H751        H  0.29517805  0.81343919  0.55194098     0.04300
H752        H  0.20794030  0.73005828  0.53898505     0.04300
C753        C  0.23935796  0.68285011  0.45615825    -0.05800
C754        C  0.23200388  0.69926228  0.42691789     0.00200
C755        C  0.23091405  0.73368309  0.42686172    -0.08400
C756        C  0.23705188  0.75042655  0.45652840    -0.05800
C757        C  0.24536772  0.73389366  0.48562510     0.00100
C758        C  0.24677181  0.69930984  0.48538004    -0.08300
C759        C  0.25599903  0.67802699  0.51457169     0.62100
H760        H  0.24013208  0.65642041  0.45598637     0.12700
H761        H  0.23502933  0.77671750  0.45732340     0.12800
C762        C  0.22423261  0.75257955  0.39564047     0.62300
F763        F  0.22824133  0.66107367  0.52438405    -0.22900
F764        F  0.26807807  0.69501909  0.54120494    -0.20200
F765        F  0.28042429  0.65587212  0.50526699    -0.19900
F766        F  0.19244791  0.74631352  0.38450325    -0.19900
F767        F  0.24701324  0.74342842  0.37181862    -0.20300
F768        F  0.22684927  0.78582252  0.40060108    -0.22900
C769        C  0.51007292  0.62650319  0.46412842    -0.05800
C770        C  0.01914404  0.60840746  0.42439130     0.00200
C771        C  0.02830227  0.57498676  0.42326957    -0.08400
C772        C  0.02511304  0.55647633  0.45201570    -0.05800
C773        C  0.01233844  0.57005217  0.48113182     0.00100
C774        C  0.50419360  0.60718010  0.49176072    -0.08300
C775        C  0.48964925  0.62279185  0.52266949     0.62100
H776        H  0.50446149  0.65229157  0.46547376     0.12700
H777        H  0.03202426  0.53093334  0.45191778     0.12800
C778        C  0.03997085  0.55847943  0.39181542     0.62300
F779        F  0.47825846  0.65416965  0.51695684    -0.22900
F780        F  0.51373389  0.62430129  0.54681275    -0.20200
F781        F  0.46314068  0.60502024  0.53414829    -0.19900
F782        F  0.07085252  0.57001425  0.38305947    -0.19900
F783        F  0.01744976  0.56458741  0.36683655    -0.20300
F784        F  0.04273540  0.52505742  0.39534116    -0.22900
C785        C  0.00486460  0.93602214  0.62482480    -0.05800
C786        C  0.48086598  0.94601091  0.65552115     0.00200
C787        C  0.47263790  0.97959907  0.65830139    -0.08400
C788        C  0.47463401  0.99910110  0.63009146    -0.05800
C789        C  0.48575392  0.98647919  0.59990335     0.00100
C790        C  0.01087774  0.95537756  0.59733134    -0.08300
C791        C  0.05017410  0.45391273  0.57970844     0.62100
H792        H  0.02121958  0.91524762  0.62858036     0.12700
H793        H  0.46824735  0.02471645  0.63147054     0.12800
C794        C  0.46334769  0.99535684  0.69087825     0.62300
F795        F  0.05077387  0.42120287  0.57145004    -0.22900
F796        F  0.07821500  0.46072418  0.59806539    -0.20200
F797        F  0.04241818  0.96349465  0.54720052    -0.19900
F798        F  0.48660614  0.98705780  0.71453696    -0.19900
F799        F  0.43224963  0.98515184  0.70055297    -0.20300
F800        F  0.46238881  0.02898718  0.68880153    -0.22900
C801        C  0.23272534  0.82167934  0.62117887    -0.05800
C802        C  0.26079388  0.80581107  0.60794838     0.00200
C803        C  0.29210507  0.81007600  0.62366385    -0.08400
C804        C  0.29447475  0.83260044  0.64964978    -0.05800
C805        C  0.26640008  0.84874405  0.66249651     0.00100
C806        C  0.23456263  0.84134891  0.64938727    -0.08300
C807        C  0.20229373  0.85323442  0.66502490     0.62100
H808        H  0.20901776  0.81912191  0.60890612     0.12700
H809        H  0.31874937  0.83758054  0.66002718     0.12800
C810        C  0.32375624  0.79177192  0.61432401     0.62300
F811        F  0.17555624  0.83479088  0.65473503    -0.22900
F812        F  0.19601177  0.88522980  0.65650566    -0.20200
F813        F  0.20420752  0.85063715  0.69883495    -0.19900
F814        F  0.31784783  0.76439804  0.59556980    -0.19900
F815        F  0.34009706  0.78157384  0.64244293    -0.20300
F816        F  0.34442116  0.81224383  0.59715583    -0.22900
C817        C  0.02405685  0.72508140  0.15353406    -0.05800
C818        C  0.01405758  0.69269295  0.14909867     0.00200
C819        C  0.00309837  0.68232012  0.11757058    -0.08400
C820        C  0.00147302  0.70525022  0.09216783    -0.05800
C821        C  0.01102057  0.73767875  0.09681634     0.00100
C822        C  0.02364697  0.74760001  0.12773091    -0.08300
C823        C  0.03801427  0.78086990  0.13482783     0.62100
H824        H  0.03301833  0.73282221  0.17741823     0.12700
H825        H  0.50217341  0.70212129  0.07102236     0.12800
C826        C  0.50416795  0.64994936  0.11116352     0.62300
F827        F  0.01799600  0.79702303  0.15731497    -0.22900
F828        F  0.04102483  0.79980326  0.10715503    -0.20200
F829        F  0.06946012  0.77713250  0.14820197    -0.19900
F830        F  0.47412925  0.64169440  0.12513149    -0.19900
F831        F  0.01896693  0.62642766  0.12058457    -0.20300
F832        F  0.50140331  0.64544254  0.07756000    -0.22900
C833        C  0.46255486  0.84953734  0.94633921    -0.05800
C834        C  0.49021334  0.86578136  0.93346270     0.00200
C835        C  0.01662089  0.85497484  0.94330688    -0.08400
C836        C  0.01766399  0.83449765  0.97074936    -0.05800
C837        C  0.49684653  0.82298219  0.98774550     0.00100
C838        C  0.46534041  0.82750222  0.97255335    -0.08300
C839        C  0.43376818  0.81018348  0.98261107     0.62100
H840        H  0.43823928  0.85385852  0.93559806     0.12700
H841        H  0.04053384  0.83211985  0.98455475     0.12800
C842        C  0.04910994  0.86948068  0.93138738     0.62300
F843        F  0.41839273  0.79758276  0.95499145    -0.22900
F844        F  0.41239981  0.83237501  0.99741319    -0.20200
F845        F  0.43922649  0.78467289  0.00388928    -0.19900
F846        F  0.05016814  0.90224406  0.93920785    -0.19900
F847        F  0.05209465  0.86526884  0.89779188    -0.20300
F848        F  0.07648129  0.85457244  0.94578407    -0.22900
C849        C  0.03553484  0.78861130  0.68785920    -0.05800
C850        C  0.06390776  0.79310045  0.70732217     0.00200
C851        C  0.06796652  0.82234506  0.72524025    -0.08400
C852        C  0.04325717  0.84666257  0.72282696    -0.05800
C853        C  0.01527754  0.84247897  0.70278705     0.00100
C854        C  0.01087016  0.81300088  0.68534683    -0.08300
C855        C  0.49596177  0.82148714  0.65711093     0.62100
H856        H  0.03327477  0.76611995  0.67406924     0.12700
H857        H  0.04590866  0.86946727  0.73600141     0.12800
C858        C  0.09873590  0.82798016  0.74600356     0.62300
F859        F  0.49868948  0.79393542  0.63754880    -0.22900
F860        F  0.49873350  0.84835795  0.63716578    -0.20200
F861        F  0.46481312  0.82162661  0.67148643    -0.19900
F862        F  0.12674411  0.82669083  0.72635051    -0.19900
F863        F  0.10121266  0.80417955  0.76977378    -0.20300
F864        F  0.09778654  0.85801311  0.76157527    -0.22900
C865        C  0.19344787  0.74033765  0.65417952    -0.05800
C866        C  0.16009236  0.74911991  0.64873429     0.00200
C867        C  0.14962195  0.75835708  0.61677247    -0.08400
C868        C  0.17389971  0.76227538  0.59254779    -0.05800
C869        C  0.20750438  0.75509253  0.59858627     0.00100
C870        C  0.21707482  0.74150826  0.62903992    -0.08300
C871        C  0.25112283  0.72693564  0.63594310     0.62100
H872        H  0.20111643  0.73187908  0.67822789     0.12700
H873        H  0.16687543  0.77163608  0.56867375     0.12800
C874        C  0.11319500  0.76295436  0.60755138     0.62300
F875        F  0.26801524  0.74672885  0.65768686    -0.22900
F876        F  0.26985870  0.72271307  0.60785458    -0.20200
F877        F  0.24750645  0.69658939  0.64998536    -0.19900
F878        F  0.10097475  0.79183541  0.62052442    -0.19900
F879        F  0.09479941  0.73720413  0.61920829    -0.20300
F880        F  0.10886245  0.76397817  0.57384068    -0.22900
C881        C  0.20189213  0.50474425  0.68638272    -0.05800
C882        C  0.17965322  0.50743782  0.71274408     0.00200
C883        C  0.18965545  0.98374394  0.74189481    -0.08400
C884        C  0.21455298  0.95935436  0.74046121    -0.05800
C885        C  0.23228290  0.95298856  0.71139599     0.00100
C886        C  0.22671621  0.97256983  0.68344183    -0.08300
C887        C  0.24728613  0.96844042  0.65240691     0.62100
H888        H  0.19905079  0.52137195  0.66600294     0.12700
H889        H  0.21966596  0.94435564  0.76170578     0.12800
C890        C  0.16993975  0.98920419  0.77324044     0.62300
F891        F  0.24856513  0.50707274  0.63762829    -0.22900
F892        F  0.23958166  0.93943454  0.63701579    -0.20200
F893        F  0.28077692  0.96849435  0.66021250    -0.19900
F894        F  0.13639400  0.98518513  0.76706685    -0.19900
F895        F  0.17517472  0.02037304  0.78496147    -0.20300
F896        F  0.17926545  0.96758136  0.79758086    -0.22900
C897        C  0.05147363  0.55673180  0.65169953    -0.05800
C898        C  0.08546650  0.54901412  0.64881327     0.00200
C899        C  0.09826166  0.53916100  0.61771480    -0.08400
C900        C  0.07599093  0.53476983  0.59160038    -0.05800
C901        C  0.04184164  0.54066589  0.59503207     0.00100
C902        C  0.02944684  0.55357207  0.62502554    -0.08300
C903        C  0.99616091  0.06488911  0.63269451     0.62100
H904        H  0.04193717  0.56540067  0.67508827     0.12700
H905        H  0.08509981  0.52608847  0.56807627     0.12800
C906        C  0.13518741  0.53375967  0.61137467     0.62300
F907        F  0.99982216  0.09692133  0.64253597    -0.22900
F908        F  0.97943247  0.04840133  0.65701898    -0.20200
F909        F  0.48333080  0.08726486  0.59955857    -0.19900
F910        F  0.14548591  0.50462730  0.62503450    -0.19900
F911        F  0.15328595  0.55908856  0.62465307    -0.20300
F912        F  0.14219454  0.53240670  0.57811408    -0.22900
C913        C  0.23601726  0.81929350  0.87079142    -0.05800
C914        C  0.22538017  0.85153563  0.86609144     0.00200
C915        C  0.19147116  0.85821253  0.85913984    -0.08400
C916        C  0.16884080  0.83229006  0.85930560    -0.05800
C917        C  0.17926826  0.80021272  0.86562302     0.00100
C918        C  0.21342471  0.79338301  0.87097854    -0.08300
C919        C  0.22569160  0.75921954  0.87869566     0.62100
H920        H  0.26210469  0.81476864  0.87578906     0.12700
H921        H  0.14260008  0.83696589  0.85527161     0.12800
C922        C  0.17939177  0.89236787  0.85106705     0.62300
F923        F  0.25955995  0.75828627  0.88481859    -0.22900
F924        F  0.21939304  0.73878899  0.85240592    -0.20200
F925        F  0.20957373  0.74780002  0.90622883    -0.19900
F926        F  0.19849421  0.90493482  0.82603420    -0.19900
F927        F  0.18191748  0.91216515  0.87844596    -0.20300
F928        F  0.14652087  0.89273731  0.84086935    -0.22900
C929        C  0.07456914  0.77397136  0.98708419    -0.05800
C930        C  0.04145256  0.76445663  0.98337113     0.00200
C931        C  0.03081672  0.75042429  0.95340841    -0.08400
C932        C  0.05316399  0.74932549  0.92701761    -0.05800
C933        C  0.08611983  0.75985653  0.93029227     0.00100
C934        C  0.09742977  0.77155391  0.96123657    -0.08300
C935        C  0.13341459  0.78073307  0.96770452     0.62100
H936        H  0.08215258  0.78417163  0.01047561     0.12700
H937        H  0.04486009  0.73956132  0.90365520     0.12800
C938        C  0.99692229  0.73541713  0.94816603     0.62300
F939        F  0.13951245  0.78566795  0.00081743    -0.22900
F940        F  0.14082706  0.80926780  0.95159081    -0.20200
F941        F  0.15446552  0.75600887  0.95708601    -0.19900
F942        F  0.48255099  0.75295277  0.93102769    -0.19900
F943        F  0.48302071  0.73803526  0.98395763    -0.20300
F944        F  0.50470249  0.70476920  0.94599890    -0.22900
C945        C  0.02306288  0.98040846  0.90168874    -0.05800
C946        C  0.01974157  0.96115331  0.87336288     0.00200
C947        C  0.04063858  0.96671418  0.84602451    -0.08400
C948        C  0.06446129  0.99155117  0.84815987    -0.05800
C949        C  0.06704365  0.51134528  0.87482494     0.00100
C950        C  0.04228809  0.50976969  0.89933172    -0.08300
C951        C  0.03895771  0.53618053  0.92532687     0.62100
H952        H  0.50960407  0.98018441  0.92313645     0.12700
H953        H  0.08112931  0.99585557  0.82781694     0.12800
C954        C  0.03893188  0.94548151  0.81545811     0.62300
F955        F  0.01061476  0.53239144  0.94410575    -0.22900
F956        F  0.03701868  0.56630251  0.91037514    -0.20200
F957        F  0.06621804  0.53541138  0.94600448    -0.19900
F958        F  0.00859405  0.95003238  0.80007749    -0.19900
F959        F  0.04262048  0.91307943  0.82393266    -0.20300
F960        F  0.06372747  0.95285015  0.79324138    -0.22900
C961        C  0.25668579  0.95525639  0.98802125    -0.05800
C962        C  0.26802324  0.98718151  0.98431700     0.00200
C963        C  0.28216075  0.99669736  0.95412817    -0.08400
C964        C  0.28112562  0.97489169  0.92752740    -0.05800
C965        C  0.26846695  0.94333004  0.93070616     0.00100
C966        C  0.25689987  0.93287275  0.96182548    -0.08300
C967        C  0.24551486  0.89823974  0.96794350     0.62100
H968        H  0.24666776  0.94832431  0.01160842     0.12700
H969        H  0.29112312  0.98242073  0.90409087     0.12800
C970        C  0.29945994  0.53028413  0.94737933     0.62300
F971        F  0.24070531  0.89236086  0.00101647    -0.22900
F972        F  0.26926655  0.87625826  0.95673773    -0.20200
F973        F  0.21569229  0.89281222  0.95201033    -0.19900
F974        F  0.32959371  0.52462239  0.93187966    -0.19900
F975        F  0.30598609  0.54778184  0.97564548    -0.20300
F976        F  0.27939678  0.54876527  0.92697533    -0.22900
C977        C  0.25750206  0.62403308  0.12638852    -0.05800
C978        C  0.23391331  0.61549569  0.15030396     0.00200
C979        C  0.21591298  0.58600068  0.14597509    -0.08400
C980        C  0.22263933  0.56673665  0.11798010    -0.05800
C981        C  0.24604836  0.57592730  0.09444935     0.00100
C982        C  0.26309346  0.60553041  0.09813580    -0.08300
C983        C  0.28671551  0.61973479  0.07309087     0.62100
H984        H  0.27134884  0.64633826  0.12884799     0.12700
H985        H  0.20951062  0.54418956  0.11397545     0.12800
C986        C  0.18978908  0.57438359  0.17006204     0.62300
F987        F  0.27598525  0.65079176  0.06502155    -0.22900
F988        F  0.28875646  0.60196113  0.04441325    -0.20200
F989        F  0.31813800  0.62167739  0.08669961    -0.19900
F990        F  0.16288277  0.59563562  0.17010226    -0.19900
F991        F  0.20327116  0.57236936  0.20124266    -0.20300
F992        F  0.17802030  0.54383805  0.16186275    -0.22900
C993        C  0.18809433  0.57204299  0.93898892    -0.05800
C994        C  0.16975241  0.54480410  0.92901093     0.00200
C995        C  0.17481136  0.51466601  0.94558353    -0.08400
C996        C  0.19642038  0.51388207  0.97263618    -0.05800
C997        C  0.21506237  0.54093909  0.98213874     0.00100
C998        C  0.21126767  0.57054646  0.96472627    -0.08300
C999        C  0.23000579  0.60131971  0.97345160     0.62100
H1000       H  0.18386549  0.59508640  0.92681914     0.12700
H1001       H  0.19860537  0.49194570  0.98704784     0.12800
C1002       C  0.15837733  0.48303963  0.93508628     0.62300
F1003       F  0.21261260  0.61859033  0.99717097    -0.22900
F1004       F  0.23354300  0.62095377  0.94619583    -0.20200
F1005       F  0.26153329  0.59432954  0.98489966    -0.19900
F1006       F  0.16195727  0.47843519  0.90160047    -0.19900
F1007       F  0.12501775  0.48376479  0.94328071    -0.20300
F1008       F  0.17265431  0.45631628  0.95040030    -0.22900
C1009       C  0.42247326  0.58211867  0.21852183    -0.05800
C1010       C  0.43265437  0.54964486  0.21420299     0.00200
C1011       C  0.46675093  0.54206729  0.20956380    -0.08400
C1012       C  0.48962444  0.56777650  0.20857686    -0.05800
C1013       C  0.47918798  0.60036613  0.21169005     0.00100
C1014       C  0.44526316  0.60775080  0.21765329    -0.08300
C1015       C  0.43326593  0.64242600  0.22374110     0.62100
H1016       H  0.39623623  0.58727307  0.22197102     0.12700
H1017       H  0.01115557  0.56234527  0.21352505     0.12800
C1018       C  0.47864324  0.50721616  0.20441417     0.62300
F1019       F  0.40013532  0.64362841  0.23292187    -0.22900
F1020       F  0.43666112  0.66060384  0.19554048    -0.20200
F1021       F  0.45176281  0.65629642  0.24870723    -0.19900
F1022       F  0.46708135  0.98915270  0.19915667    -0.19900
F1023       F  0.47296036  0.48941428  0.23251144    -0.20300
F1024       F  0.51231734  0.50551197  0.19752589    -0.22900
C1025       C  0.28421068  0.51226161  0.12422085    -0.05800
C1026       C  0.29928702  0.52554109  0.09630823     0.00200
C1027       C  0.33386533  0.53178780  0.09662966    -0.08400
C1028       C  0.35202597  0.52388002  0.12479964    -0.05800
C1029       C  0.33697452  0.51140383  0.15311433     0.00100
C1030       C  0.30229054  0.50578754  0.15309425    -0.08300
C1031       C  0.28414886  0.49412965  0.18338830     0.62100
H1032       H  0.25795161  0.50681998  0.12311817     0.12700
H1033       H  0.37860675  0.52817196  0.12478083     0.12800
C1034       C  0.35328313  0.54718366  0.06884029     0.62300
F1035       F  0.24998986  0.49463838  0.17900808    -0.22900
F1036       F  0.29141036  0.51413246  0.20980686    -0.20200
F1037       F  0.29726885  0.95330159  0.18995593    -0.19900
F1038       F  0.33392080  0.55630388  0.04246495    -0.19900
F1039       F  0.37722944  0.52537926  0.05777067    -0.20300
F1040       F  0.36902896  0.57469879  0.08056272    -0.22900
C1041       C  0.27769435  0.72883055  0.23274751    -0.05800
C1042       C  0.26579348  0.71841640  0.20208564     0.00200
C1043       C  0.27826106  0.73303708  0.17316596    -0.08400
C1044       C  0.30465544  0.75496535  0.17593428    -0.05800
C1045       C  0.31738235  0.76480181  0.20648139     0.00100
C1046       C  0.30307971  0.75212433  0.23561401    -0.08300
C1047       C  0.31511822  0.76195952  0.26958958     0.62100
H1048       H  0.26760273  0.71770207  0.25455662     0.12700
H1049       H  0.31500741  0.76518587  0.15374186     0.12800
C1050       C  0.26439946  0.72723328  0.13889317     0.62300
F1051       F  0.30041773  0.74381138  0.29404096    -0.22900
F1052       F  0.30723132  0.79431412  0.27540256    -0.20200
F1053       F  0.34916578  0.75735216  0.27190941    -0.19900
F1054       F  0.23392112  0.71203344  0.13890426    -0.19900
F1055       F  0.28683554  0.70864163  0.12096478    -0.20300
F1056       F  0.25988607  0.75678731  0.12329215    -0.22900
C1057       C  0.45020226  0.76746291  0.11226787    -0.05800
C1058       C  0.46955222  0.79425143  0.10368268     0.00200
C1059       C  0.46589279  0.82371887  0.12180177    -0.08400
C1060       C  0.44207354  0.82521901  0.14710262    -0.05800
C1061       C  0.42296364  0.79812466  0.15598824     0.00100
C1062       C  0.42825180  0.76815667  0.13895604    -0.08300
C1063       C  0.41168310  0.73649300  0.14857241     0.62100
H1064       H  0.45225325  0.74559027  0.09745794     0.12700
H1065       H  0.43848614  0.84805793  0.16013192     0.12800
C1066       C  0.97616888  0.85077614  0.10677927     0.62300
F1067       F  0.42690331  0.70978175  0.13382683    -0.22900
F1068       F  0.37873608  0.73700084  0.13884328    -0.20200
F1069       F  0.41381714  0.73208930  0.18215579    -0.19900
F1070       F  0.00036237  0.84632295  0.08317478    -0.19900
F1071       F  0.99186228  0.86083970  0.13527451    -0.20300
F1072       F  0.95482768  0.87531171  0.09653294    -0.22900
C1073       C  0.44683969  0.74979634  0.35476728    -0.05800
C1074       C  0.44119648  0.76582322  0.38476880     0.00200
C1075       C  0.46011644  0.75688229  0.41277233    -0.08400
C1076       C  0.48306742  0.73101347  0.40999425    -0.05800
C1077       C  0.48763305  0.71396189  0.38039281     0.00100
C1078       C  0.46944698  0.72351109  0.35212467    -0.08300
C1079       C  0.47217089  0.70482747  0.31994122     0.62100
H1080       H  0.43205550  0.75698813  0.33373439     0.12700
H1081       H  0.00166119  0.73056460  0.33449862     0.12800
C1082       C  0.45577606  0.77379798  0.44577860     0.62300
F1083       F  0.44917965  0.71569476  0.29705355    -0.22900
F1084       F  0.46648494  0.67213398  0.32529243    -0.20200
F1085       F  0.50351962  0.70859488  0.30673372    -0.19900
F1086       F  0.42747552  0.76252751  0.46097505    -0.19900
F1087       F  0.45311245  0.80713141  0.44172442    -0.20300
F1088       F  0.99439918  0.78025211  0.30814913    -0.22900
C1089       C  0.34288120  0.77086339  0.45701699    -0.05800
C1090       C  0.33773500  0.79926099  0.43821030     0.00200
C1091       C  0.31125753  0.82083476  0.44727571    -0.08400
C1092       C  0.29151892  0.81290776  0.47463595    -0.05800
C1093       C  0.29747412  0.78481738  0.49319788     0.00100
C1094       C  0.32433936  0.76399065  0.48502011    -0.08300
C1095       C  0.33531333  0.73464948  0.50499515     0.62100
H1096       H  0.36243161  0.75371600  0.45050489     0.12700
H1097       H  0.27075744  0.82841315  0.48168578     0.12800
C1098       C  0.30330987  0.85189749  0.42868814     0.62300
F1099       F  0.32925639  0.70657175  0.48721750    -0.22900
F1100       F  0.31955681  0.73264458  0.53492729    -0.20200
F1101       F  0.36910402  0.73644911  0.51116924    -0.19900
F1102       F  0.29471679  0.84441176  0.39666636    -0.19900
F1103       F  0.33056382  0.87214165  0.42910713    -0.20300
F1104       F  0.27688823  0.86895484  0.44248680    -0.22900
C1105       C  0.33259870  0.58787662  0.36440394    -0.05800
C1106       C  0.32218832  0.55538638  0.36503181     0.00200
C1107       C  0.28773544  0.54853045  0.36315916    -0.08400
C1108       C  0.26482745  0.57478790  0.36244060    -0.05800
C1109       C  0.27534821  0.60724711  0.36394437     0.00100
C1110       C  0.30982552  0.61402301  0.36378788    -0.08300
C1111       C  0.32278467  0.64863623  0.36314382     0.62100
H1112       H  0.35897763  0.59270761  0.36529388     0.12700
H1113       H  0.23838051  0.57016681  0.36210807     0.12800
C1114       C  0.27508533  0.51386578  0.36346783     0.62300
F1115       F  0.35623264  0.64938030  0.35519266    -0.22900
F1116       F  0.31883916  0.66298280  0.39368379    -0.20200
F1117       F  0.30568805  0.66671464  0.33991757    -0.19900
F1118       F  0.28781216  0.99747072  0.37915342    -0.19900
F1119       F  0.29053708  0.00251645  0.32401885    -0.20300
F1120       F  0.24069628  0.51286007  0.36435306    -0.22900
C1121       C  0.44041304  0.54902593  0.47565684    -0.05800
C1122       C  0.46020628  0.52265557  0.48547527     0.00200
C1123       C  0.46116076  0.49417644  0.46570276    -0.08400
C1124       C  0.44034976  0.49254590  0.43787788    -0.05800
C1125       C  0.41976503  0.51881771  0.42827180     0.00100
C1126       C  0.42140247  0.54846716  0.44673766    -0.08300
C1127       C  0.36972906  0.04834240  0.46286613     0.62100
H1128       H  0.41851849  0.04989926  0.50807725     0.12700
H1129       H  0.43980844  0.47024046  0.42366182     0.12800
C1130       C  0.48423936  0.46571324  0.47347944     0.62300
F1131       F  0.36307276  0.05922235  0.49443932    -0.22900
F1132       F  0.34546127  0.02607308  0.45471392    -0.20200
F1133       F  0.41150234  0.58625375  0.40365884    -0.19900
F1134       F  0.01923130  0.47097022  0.47951509    -0.19900
F1135       F  0.99570234  0.43956371  0.44139949    -0.20300
F1136       F  0.47342633  0.44995017  0.50127002    -0.22900
C1137       C  0.90228053  0.00828942  0.39547947     0.80200
N1138       N  0.87467869  0.02759802  0.39598138    -0.78100
C1139       C  0.84877767  0.02185543  0.37564753     0.82700
N1140       N  0.85031489  0.99618600  0.35475446    -0.78000
C1141       C  0.87078897  0.46684465  0.35780023     0.82800
N1142       N  0.89649973  0.47329343  0.37855921    -0.79700
O1143       O  0.89948174  0.36798227  0.25149077    -0.71800
O1144       O  0.89950029  0.42633366  0.32538651    -0.72000
O1145       O  0.89930948  0.36080379  0.31668623    -0.71800
O1146       O  0.90085474  0.43360504  0.26051432    -0.71900
O1147       O  0.84718008  0.43114489  0.25491677    -0.71800
O1148       O  0.84564161  0.36552061  0.32131372    -0.71800
O1149       O  0.84588073  0.43122282  0.32022717    -0.71800
O1150       O  0.84571708  0.36537189  0.25576116    -0.72000
V1151       V  0.89886457  0.39715590  0.28849789     1.35200
V1152       V  0.84707242  0.39827128  0.28802771     1.35200
C1153       C  0.87222815  0.35548239  0.24242019     0.77500
C1154       C  0.87242252  0.44006835  0.33389488     0.77500
C1155       C  0.87249446  0.35101054  0.32903932     0.77400
C1156       C  0.87442548  0.44484481  0.24813390     0.77400
C1157       C  0.85279614  0.29317547  0.39599620     0.80200
N1158       N  0.85046963  0.31900746  0.37522994    -0.78100
C1159       C  0.87343661  0.32276588  0.35099625     0.82700
N1160       N  0.89906138  0.30104066  0.34804910    -0.78000
C1161       C  0.90112848  0.27512961  0.36836246     0.79200
N1162       N  0.87805319  0.27136992  0.39196945    -0.79700
C1163       C  0.89133679  0.29769432  0.17407565     0.80200
N1164       N  0.86379065  0.27890528  0.17524908    -0.78100
C1165       C  0.83996692  0.28422994  0.19813816     0.82700
N1166       N  0.84309506  0.30939987  0.21937186    -0.78000
C1167       C  0.87018117  0.32880122  0.21842088     0.82800
N1168       N  0.89450742  0.32279455  0.19594746    -0.79700
C1169       C  0.85955196  0.00861099  0.18079151     0.80200
N1170       N  0.88307572  0.03125592  0.18717901    -0.78100
C1171       C  0.90461035  0.02753142  0.21254795     0.82700
N1172       N  0.90253903  0.00064480  0.23152577    -0.78000
C1173       C  0.87584853  0.47381938  0.22731789     0.82800
N1174       N  0.85371583  0.47802332  0.20242967    -0.79700
C1175       C  0.75262608  0.05356344  0.06585504     0.02300
C1176       C  0.77927998  0.03085735  0.06539654     0.02300
C1177       C  0.78431713  0.01143103  0.03758749    -0.18300
C1178       C  0.76517616  0.01586679  0.00926309     0.02300
C1179       C  0.73927947  0.03960499  0.00920011     0.02300
C1180       C  0.73253550  0.05725550  0.03803551    -0.18300
H1181       H  0.71197615  0.07454131  0.03856754     0.04300
H1182       H  0.80427578  0.48860041  0.03796932     0.04300
C1183       C  0.64727913  0.05318318  0.90063091     0.80200
N1184       N  0.64900239  0.07888348  0.87980093    -0.78100
C1185       C  0.62452499  0.08411106  0.85739509     0.82700
N1186       N  0.59840354  0.06336059  0.85549952    -0.78000
C1187       C  0.59663538  0.03771788  0.87619101     0.82800
N1188       N  0.62089071  0.03308245  0.89871961    -0.79700
C1189       C  0.61376506  0.25807069  0.90430604     0.80200
N1190       N  0.63748283  0.28053823  0.89856635    -0.78100
C1191       C  0.65863475  0.27729585  0.87292494     0.82700
N1192       N  0.65565473  0.25150709  0.85227272    -0.78000
C1193       C  0.63123547  0.22936303  0.85698540     0.82800
N1194       N  0.61033892  0.23268531  0.88296451    -0.79700
O1195       O  0.59797481  0.12526320  0.75789317    -0.71800
O1196       O  0.60114737  0.18841682  0.82744103    -0.72000
O1197       O  0.59895212  0.19112543  0.76205508    -0.71800
O1198       O  0.59888716  0.12258147  0.82300707    -0.71900
O1199       O  0.65270862  0.12519708  0.82701202    -0.71800
O1200       O  0.65235117  0.18528183  0.75564487    -0.71800
O1201       O  0.65468262  0.19087137  0.82078041    -0.71800
O1202       O  0.65165360  0.11997737  0.76213587    -0.72000
V1203       V  0.60014040  0.15689229  0.79259077     1.35200
V1204       V  0.65190742  0.15538506  0.79143906     1.35200
C1205       C  0.62463992  0.11047926  0.74993331     0.77500
C1206       C  0.62869031  0.20157929  0.83444736     0.77500
C1207       C  0.62539173  0.19965108  0.74811404     0.77400
C1208       C  0.62562377  0.11201664  0.83528131     0.77400
C1209       C  0.60386916  0.04979796  0.68530526     0.80200
N1210       N  0.60108692  0.07586743  0.70608050    -0.78100
C1211       C  0.62553886  0.08192665  0.72833388     0.82700
N1212       N  0.65243782  0.06173005  0.73017247    -0.78000
C1213       C  0.65508919  0.03567895  0.70996759     0.82800
N1214       N  0.63121350  0.03039999  0.68728984    -0.79700
C1215       C  0.64405992  0.25440945  0.67865910     0.80200
N1216       N  0.61940780  0.27687131  0.68250439    -0.78100
C1217       C  0.59698020  0.27442262  0.70709272     0.82700
N1218       N  0.59903225  0.24894885  0.72789364    -0.78000
C1219       C  0.62403722  0.22666652  0.72494315     0.82800
N1220       N  0.64667177  0.22944268  0.70041057    -0.79700
C1221       C  0.51099527  0.26107223  0.07058594     0.02300
C1222       C  0.98464256  0.27959962  0.06677895     0.02300
C1223       C  0.97833421  0.29697335  0.03776975    -0.18300
C1224       C  0.99625727  0.29044194  0.00885482     0.02300
C1225       C  0.52296827  0.27363867  0.01346410     0.02300
C1226       C  0.52884255  0.25529527  0.04171122    -0.18300
H1227       H  0.54772772  0.23623942  0.04123550     0.04300
H1228       H  0.95950716  0.31605598  0.03782583     0.04300
O1229       O  0.84995245  0.42806288  0.82313971    -0.71800
O1230       O  0.91345323  0.42792167  0.75352243    -0.72000
O1231       O  0.84662138  0.42923081  0.75774855    -0.71800
O1232       O  0.91675460  0.42755768  0.81892020    -0.71900
O1233       O  0.91220293  0.37513027  0.82364442    -0.71800
O1234       O  0.85073443  0.37677195  0.75153628    -0.71800
O1235       O  0.91775311  0.37536713  0.75821829    -0.71800
O1236       O  0.84514403  0.37573980  0.81691131    -0.72000
V1237       V  0.88169267  0.42726380  0.78833683     1.35200
V1238       V  0.88147399  0.37660407  0.78758732     1.35200
C1239       C  0.83549610  0.40184803  0.83044638     0.77500
C1240       C  0.92756734  0.40140664  0.74534165     0.77500
C1241       C  0.83701905  0.40358040  0.74371585     0.77400
C1242       C  0.92613859  0.40139223  0.83220115     0.77400
C1243       C  0.77872396  0.42224952  0.89920199     0.80200
N1244       N  0.80470164  0.42351265  0.87790014    -0.78100
C1245       C  0.80735457  0.40132190  0.85316073     0.82700
N1246       N  0.78384781  0.37803559  0.84954167    -0.78000
C1247       C  0.75715531  0.37759947  0.86980418     0.82800
N1248       N  0.75488903  0.39956669  0.89461392    -0.79700
C1249       C  0.98363673  0.38274263  0.90150277     0.80200
N1250       N  0.49971855  0.41667547  0.90438219    -0.78100
C1251       C  0.49502115  0.43911963  0.88051222     0.82700
N1252       N  0.97400350  0.42873646  0.85464263    -0.78000
C1253       C  0.95356820  0.40275740  0.85587592     0.82800
N1254       N  0.95844920  0.37960262  0.87918911    -0.79700
C1255       C  0.77848851  0.38557649  0.67529655     0.80200
N1256       N  0.80374321  0.38209438  0.69748449    -0.78100
C1257       C  0.80977114  0.40601053  0.71984077     0.82700
N1258       N  0.79035833  0.43322836  0.72022510    -0.78000
C1259       C  0.76540823  0.43701494  0.69823385     0.82800
N1260       N  0.75967357  0.41320407  0.67586689    -0.79700
C1261       C  0.98234698  0.41977934  0.67480727     0.80200
N1262       N  0.49881517  0.39750394  0.68296241    -0.78100
C1263       C  0.49488791  0.37370893  0.70540451     0.82700
N1264       N  0.97694376  0.37475372  0.72337653    -0.78000
C1265       C  0.95511954  0.40007754  0.72193050     0.82800
N1266       N  0.95807795  0.42264814  0.69790964    -0.79700
C1267       C  0.52060919  0.17070842  0.17912422     0.80200
N1268       N  0.54627339  0.17331620  0.20086988    -0.78100
C1269       C  0.54887327  0.15234057  0.22642720     0.82700
N1270       N  0.52565486  0.12895743  0.23040124    -0.78000
C1271       C  0.49932767  0.12696433  0.20973229     0.82800
N1272       N  0.49709159  0.14775109  0.18404434    -0.79700
C1273       C  0.72576814  0.13485780  0.17938380     0.80200
N1274       N  0.70103276  0.13183473  0.20186131    -0.78100
C1275       C  0.69523750  0.15598882  0.22418726     0.82700
N1276       N  0.71448329  0.18309930  0.22426248    -0.78000
C1277       C  0.73912354  0.18619650  0.20191095     0.82800
N1278       N  0.74447933  0.16212320  0.17996479    -0.79700
O1279       O  0.65533815  0.17747890  0.32723967    -0.71800
O1280       O  0.59121028  0.17950497  0.25759852    -0.72000
O1281       O  0.58839769  0.17877142  0.32315472    -0.71800
O1282       O  0.65823384  0.17962997  0.26198251    -0.71900
O1283       O  0.65410424  0.12731981  0.25518861    -0.71800
O1284       O  0.59284106  0.12619297  0.32734445    -0.71800
O1285       O  0.58706220  0.12700151  0.26189097    -0.71800
O1286       O  0.65968348  0.12510742  0.32026215    -0.72000
V1287       V  0.62326730  0.17794109  0.29247783     1.35200
V1288       V  0.62338930  0.12728520  0.29116581     1.35200
C1289       C  0.66964094  0.15069374  0.33407398     0.77500
C1290       C  0.57708847  0.15326407  0.24923699     0.77500
C1291       C  0.57910280  0.15273308  0.33628781     0.77400
C1292       C  0.66794115  0.15393249  0.24784536     0.77400
C1293       C  0.52290092  0.13555191  0.40654820     0.80200
N1294       N  0.54825009  0.13243189  0.38448513    -0.78100
C1295       C  0.55180884  0.15457109  0.36005728     0.82700
N1296       N  0.53016488  0.17998975  0.35777862    -0.78000
C1297       C  0.50468531  0.18310322  0.37912587     0.82800
N1298       N  0.00399855  0.15678635  0.39848596    -0.79700
C1299       C  0.72734423  0.16734648  0.40281527     0.80200
N1300       N  0.70156487  0.17038904  0.38142714    -0.78100
C1301       C  0.69783231  0.14849835  0.35665106     0.82700
N1302       N  0.71978092  0.12328067  0.35338005    -0.78000
C1303       C  0.74587467  0.12033289  0.37422955     0.82800
N1304       N  0.74925612  0.14226860  0.39886353    -0.79700
C1305       C  0.98666880  0.02278386  0.50853774     0.02300
C1306       C  0.50123317  0.05124606  0.51877209     0.02300
C1307       C  0.51950959  0.05525937  0.54782275    -0.18300
C1308       C  0.51433081  0.03485552  0.57483863     0.02300
C1309       C  0.99637818  0.00632021  0.56526646     0.02300
C1310       C  0.97905527  0.00313701  0.53556679    -0.18300
H1311       H  0.96211003  0.48297245  0.53498179     0.04300
H1312       H  0.53799571  0.07420072  0.54937616     0.04300
C1313       C  0.77602655  0.27425644  0.51484565     0.02300
C1314       C  0.75220314  0.24918684  0.51605169     0.02300
C1315       C  0.73299865  0.24530825  0.54422426    -0.18300
C1316       C  0.73801202  0.26465890  0.57202838     0.02300
C1317       C  0.76231593  0.28937137  0.57150497     0.02300
C1318       C  0.78060218  0.29423799  0.54254061    -0.18300
H1319       H  0.79832727  0.31389087  0.54146738     0.04300
H1320       H  0.71398398  0.22676834  0.54457182     0.04300
C1321       C  0.74829544  0.17600102  0.45898391    -0.05800
C1322       C  0.73107587  0.18907969  0.43191404     0.00200
C1323       C  0.71894573  0.22167283  0.43379822    -0.08400
C1324       C  0.72649984  0.24017403  0.46194557    -0.05800
C1325       C  0.74553334  0.22747829  0.48783796     0.00100
C1326       C  0.75522463  0.19424419  0.48718223    -0.08300
C1327       C  0.77225445  0.17602697  0.51506863     0.62100
H1328       H  0.75627292  0.15069664  0.45848718     0.12700
H1329       H  0.71705474  0.26486092  0.46431027     0.12800
C1330       C  0.69827005  0.23722751  0.40674168     0.62300
F1331       F  0.75252344  0.15026101  0.52429177    -0.22900
F1332       F  0.77799723  0.19475113  0.54263296    -0.20200
F1333       F  0.80247900  0.16375945  0.50419357    -0.19900
F1334       F  0.66817401  0.22145646  0.40397154    -0.19900
F1335       F  0.71520938  0.23542079  0.37725761    -0.20300
F1336       F  0.69142712  0.26974397  0.41313276    -0.22900
C1337       C  0.01332855  0.12348676  0.45960611    -0.05800
C1338       C  0.51899373  0.11284856  0.43502885     0.00200
C1339       C  0.53388767  0.08124499  0.43712772    -0.08400
C1340       C  0.52755687  0.06220108  0.46508470    -0.05800
C1341       C  0.50725767  0.07336651  0.49075395     0.00100
C1342       C  0.00860164  0.10387148  0.48725005    -0.08300
C1343       C  0.99271054  0.11860805  0.51792941     0.62100
H1344       H  0.00638979  0.14899898  0.46079573     0.12700
H1345       H  0.53883202  0.03832796  0.46743307     0.12800
C1346       C  0.55618899  0.06710078  0.41042613     0.62300
F1347       F  0.98090800  0.14988924  0.51246583    -0.22900
F1348       F  0.01586692  0.12012477  0.54293413    -0.20200
F1349       F  0.96617128  0.10007364  0.52805978    -0.19900
F1350       F  0.58501452  0.08501836  0.40830763    -0.19900
F1351       F  0.53964402  0.06740912  0.38064171    -0.20300
F1352       F  0.56543190  0.03519792  0.41677907    -0.22900
C1353       C  0.49930933  0.43699591  0.62674786    -0.05800
C1354       C  0.98518602  0.44339075  0.64690579     0.00200
C1355       C  0.95950361  0.46565269  0.63712269    -0.08400
C1356       C  0.96525874  0.48618582  0.61013242    -0.05800
C1357       C  0.99481094  0.48472092  0.59203456     0.00100
C1358       C  0.50421510  0.45658593  0.59932728    -0.08300
C1359       C  0.50835896  0.93819090  0.56565641     0.62100
H1360       H  0.51018550  0.41287287  0.62615683     0.12700
H1361       H  0.94652978  0.50381916  0.60272699     0.12800
C1362       C  0.92581446  0.46778315  0.65400152     0.62300
F1363       F  0.52105072  0.90713829  0.57060580    -0.22900
F1364       F  0.53370961  0.95686636  0.55315909    -0.20200
F1365       F  0.50989400  0.41478574  0.55941081    -0.19900
F1366       F  0.92963730  0.47895911  0.68584709    -0.19900
F1367       F  0.91107485  0.43751066  0.65400108    -0.20300
F1368       F  0.90421539  0.48901220  0.63820675    -0.22900
C1369       C  0.73946339  0.33128494  0.60924157    -0.05800
C1370       C  0.76688714  0.31212736  0.59970675     0.00200
C1371       C  0.79782302  0.31667560  0.61580672    -0.08400
C1372       C  0.80035508  0.34130398  0.63966291    -0.05800
C1373       C  0.77281727  0.36018920  0.64965561     0.00100
C1374       C  0.74132955  0.35432849  0.63478723    -0.08300
C1375       C  0.70939628  0.37130010  0.64579219     0.62100
H1376       H  0.71634640  0.32839973  0.59598581     0.12700
H1377       H  0.82441423  0.34565764  0.65080409     0.12800
C1378       C  0.82906387  0.29682211  0.60881267     0.62300
F1379       F  0.68151050  0.35688834  0.63230189    -0.22900
F1380       F  0.70934755  0.40343654  0.63604875    -0.20200
F1381       F  0.70644996  0.36964600  0.67956299    -0.19900
F1382       F  0.82284536  0.26849314  0.59170756    -0.19900
F1383       F  0.84413491  0.28805422  0.63806671    -0.20300
F1384       F  0.85092115  0.31556975  0.59105629    -0.22900
C1385       C  0.52929957  0.22508339  0.15499096    -0.05800
C1386       C  0.51843612  0.19296935  0.15050037     0.00200
C1387       C  0.50740857  0.18293939  0.11882260    -0.08400
C1388       C  0.50646004  0.20601372  0.09347827    -0.05800
C1389       C  0.51643694  0.23828489  0.09836937     0.00100
C1390       C  0.52928399  0.24775271  0.12932348    -0.08300
C1391       C  0.54391931  0.28085155  0.13668311     0.62100
H1392       H  0.53828440  0.23261926  0.17893091     0.12700
H1393       H  0.99532642  0.19315240  0.06999204     0.12800
C1394       C  0.99761126  0.14457537  0.11445646     0.62300
F1395       F  0.52394003  0.29701760  0.15919111    -0.22900
F1396       F  0.54718456  0.29994771  0.10913581    -0.20200
F1397       F  0.57527324  0.27676719  0.15016725    -0.19900
F1398       F  0.96799185  0.13894908  0.13049191    -0.19900
F1399       F  0.52174983  0.12663325  0.12137979    -0.20300
F1400       F  0.99288430  0.13736776  0.08154489    -0.22900
C1401       C  0.95970441  0.34181446  0.93909356    -0.05800
C1402       C  0.98803214  0.35845647  0.92834223     0.00200
C1403       C  0.51771256  0.35934614  0.94704342    -0.08400
C1404       C  0.51992384  0.33813294  0.97385715    -0.05800
C1405       C  0.99195288  0.31259176  0.98024030     0.00100
C1406       C  0.96107401  0.31851257  0.96423342    -0.08300
C1407       C  0.92875804  0.30128447  0.97196563     0.62100
H1408       H  0.93591064  0.34695664  0.92760469     0.12700
H1409       H  0.54330683  0.33569372  0.98675485     0.12800
C1410       C  0.54962743  0.37384465  0.93378673     0.62300
F1411       F  0.91524877  0.28913262  0.94320117    -0.22900
F1412       F  0.90654147  0.32346413  0.98553198    -0.20200
F1413       F  0.93248484  0.27552726  0.99327172    -0.19900
F1414       F  0.55142659  0.40638713  0.94234101    -0.19900
F1415       F  0.55069575  0.37048611  0.89998405    -0.20300
F1416       F  0.57756029  0.35827312  0.94630963    -0.22900
C1417       C  0.54960049  0.30180718  0.68068431    -0.05800
C1418       C  0.56900526  0.29786204  0.70896984     0.00200
C1419       C  0.56224972  0.31712210  0.73717540    -0.08400
C1420       C  0.53689965  0.34100138  0.73538512    -0.05800
C1421       C  0.51858448  0.34598704  0.70644405     0.00100
C1422       C  0.52409860  0.32529874  0.67898686    -0.08300
C1423       C  0.01149417  0.32587807  0.64422514     0.62100
H1424       H  0.55486793  0.28639667  0.65963965     0.12700
H1425       H  0.53189337  0.35674432  0.75624890     0.12800
C1426       C  0.58264587  0.31351871  0.76837073     0.62300
F1427       F  0.01612455  0.29896683  0.62407243    -0.22900
F1428       F  0.02196682  0.35302120  0.62741377    -0.20200
F1429       F  0.97781948  0.32876205  0.65069727    -0.19900
F1430       F  0.61595333  0.31795035  0.76145346    -0.19900
F1431       F  0.57833960  0.28284690  0.78136170    -0.20300
F1432       F  0.57331505  0.33609718  0.79206201    -0.22900
C1433       C  0.70037465  0.24561028  0.65541391    -0.05800
C1434       C  0.66755292  0.25680720  0.65072729     0.00200
C1435       C  0.65786177  0.26871664  0.61933295    -0.08400
C1436       C  0.68202276  0.27067291  0.59469548    -0.05800
C1437       C  0.71487445  0.26032850  0.59978803     0.00100
C1438       C  0.72402036  0.24615228  0.63009983    -0.08300
C1439       C  0.75758773  0.23038195  0.63684509     0.62100
H1440       H  0.70759321  0.23575520  0.67904551     0.12700
H1441       H  0.67556889  0.28079891  0.57098790     0.12800
C1442       C  0.62228601  0.27861806  0.61098276     0.62300
F1443       F  0.77448761  0.24871987  0.65987483    -0.22900
F1444       F  0.77700280  0.22716652  0.60910907    -0.20200
F1445       F  0.75291943  0.19947629  0.64923516    -0.19900
F1446       F  0.61419183  0.30761884  0.62653551    -0.19900
F1447       F  0.60061307  0.25454994  0.62056709    -0.20300
F1448       F  0.61791993  0.28315395  0.57758482    -0.22900
C1449       C  0.70299415  0.01043756  0.68220250    -0.05800
C1450       C  0.68424583  0.01377757  0.71101640     0.00200
C1451       C  0.70110275  0.49455073  0.73395895    -0.08400
C1452       C  0.72584479  0.47029637  0.73052584    -0.05800
C1453       C  0.74271115  0.46535072  0.70074439     0.00100
C1454       C  0.73681911  0.48667955  0.67418075    -0.08300
C1455       C  0.75676863  0.48419159  0.64261667     0.62100
H1456       H  0.69718824  0.02622068  0.66171196     0.12700
H1457       H  0.73120931  0.45395963  0.75067975     0.12800
C1458       C  0.68168223  0.49748190  0.76578812     0.62300
F1459       F  0.74355212  0.01220011  0.62849734    -0.22900
F1460       F  0.74882411  0.45603616  0.62584468    -0.20200
F1461       F  0.79039909  0.48382060  0.64980228    -0.19900
F1462       F  0.64823497  0.49270297  0.75970632    -0.19900
F1463       F  0.68603196  0.52805912  0.77933914    -0.20300
F1464       F  0.69204857  0.47472666  0.78867257    -0.22900
C1465       C  0.55695146  0.06968914  0.65072093    -0.05800
C1466       C  0.57890756  0.04406098  0.65885856     0.00200
C1467       C  0.57695658  0.01427850  0.64078676    -0.08400
C1468       C  0.55651776  0.01324010  0.61294417    -0.05800
C1469       C  0.53511044  0.03895868  0.60466289     0.00100
C1470       C  0.53389195  0.06703588  0.62495986    -0.08300
C1471       C  0.50824086  0.58666835  0.62681872     0.62100
H1472       H  0.55729293  0.09206595  0.66491855     0.12700
H1473       H  0.55692076  0.99187765  0.59737283     0.12800
C1474       C  0.59510515  0.98307519  0.65059699     0.62300
F1475       F  0.52052764  0.61773949  0.62316787    -0.22900
F1476       F  0.49229715  0.58480445  0.65680516    -0.20200
F1477       F  0.97482253  0.56439307  0.60197672    -0.19900
F1478       F  0.59135888  0.97773966  0.68389211    -0.19900
F1479       F  0.62847778  0.98503517  0.64280482    -0.20300
F1480       F  0.58246701  0.95614998  0.63441629    -0.22900
C1481       C  0.74199279  0.31976163  0.87353460    -0.05800
C1482       C  0.73206955  0.35184149  0.86679193     0.00200
C1483       C  0.69839759  0.35889439  0.85927697    -0.08400
C1484       C  0.67520742  0.33351544  0.86040188    -0.05800
C1485       C  0.68492031  0.30162619  0.86834564     0.00100
C1486       C  0.71880553  0.29438195  0.87471120    -0.08300
C1487       C  0.73006736  0.26034892  0.88422804     0.62100
H1488       H  0.76792112  0.31501275  0.87911903     0.12700
H1489       H  0.64913687  0.33846844  0.85568199     0.12800
C1490       C  0.68723519  0.39295763  0.84969262     0.62300
F1491       F  0.76383337  0.25886555  0.89080011    -0.22900
F1492       F  0.72348065  0.23884254  0.85889585    -0.20200
F1493       F  0.71329966  0.25067803  0.91207899    -0.19900
F1494       F  0.70630593  0.40372151  0.82376356    -0.19900
F1495       F  0.69086629  0.41397880  0.87600607    -0.20300
F1496       F  0.65421759  0.39384087  0.84004440    -0.22900
C1497       C  0.57794152  0.28036505  0.98837783    -0.05800
C1498       C  0.54574252  0.26814302  0.98540096     0.00200
C1499       C  0.53715965  0.24940235  0.95758516    -0.08400
C1500       C  0.55999967  0.24700448  0.93158646    -0.05800
C1501       C  0.59166450  0.26118932  0.93343241     0.00100
C1502       C  0.60147296  0.27682556  0.96318940    -0.08300
C1503       C  0.63666374  0.28865928  0.96950894     0.62100
H1504       H  0.58432912  0.29317769  0.01079769     0.12700
H1505       H  0.55303444  0.23409076  0.90943127     0.12800
C1506       C  0.50460518  0.23123311  0.95582962     0.62300
F1507       F  0.64163657  0.29666657  0.00220752    -0.22900
F1508       F  0.64280911  0.31617199  0.95120621    -0.20200
F1509       F  0.65938870  0.26438292  0.96151670    -0.19900
F1510       F  0.98087340  0.25821371  0.92186973    -0.19900
F1511       F  0.97796325  0.23259922  0.97045856    -0.20300
F1512       F  0.99815435  0.20628747  0.92675777    -0.22900
C1513       C  0.52429654  0.48404674  0.90843283    -0.05800
C1514       C  0.51732898  0.46769756  0.87890185     0.00200
C1515       C  0.53380636  0.47723370  0.84972340    -0.08400
C1516       C  0.55719508  0.50252580  0.85148031    -0.05800
C1517       C  0.56855636  0.01492959  0.87492067     0.00100
C1518       C  0.54777768  0.01033886  0.90246303    -0.08300
C1519       C  0.54991640  0.03215588  0.93257953     0.62100
H1520       H  0.00182476  0.48102815  0.91807136     0.12700
H1521       H  0.57068824  0.50958722  0.82971095     0.12800
C1522       C  0.52847846  0.45957332  0.81730519     0.62300
F1523       F  0.52266756  0.02846025  0.95288793    -0.22900
F1524       F  0.55093740  0.06445289  0.92322420    -0.20200
F1525       F  0.57821825  0.02457545  0.95033950    -0.19900
F1526       F  0.49619744  0.46443664  0.80658548    -0.19900
F1527       F  0.53449199  0.42661182  0.82125540    -0.20300
F1528       F  0.54958669  0.47061901  0.79305850    -0.22900
C1529       C  0.76549331  0.45741166  0.98497392    -0.05800
C1530       C  0.77398915  0.49002502  0.98015301     0.00200
C1531       C  0.78642311  0.49981515  0.94924389    -0.08400
C1532       C  0.78696876  0.47705954  0.92336388    -0.05800
C1533       C  0.77699273  0.44471886  0.92776648     0.00100
C1534       C  0.76705388  0.43435344  0.95947828    -0.08300
C1535       C  0.75859728  0.39917573  0.96699611     0.62100
H1536       H  0.75646282  0.45037401  0.00891613     0.12700
H1537       H  0.79551587  0.48467065  0.89940228     0.12800
C1538       C  0.79177980  0.03531797  0.94041918     0.62300
F1539       F  0.75601893  0.39384486  0.00042229    -0.22900
F1540       F  0.78325846  0.37857916  0.95506771    -0.20200
F1541       F  0.72843536  0.39134100  0.95284940    -0.19900
F1542       F  0.82235923  0.03291127  0.92502863    -0.19900
F1543       F  0.79541816  0.05583661  0.96706985    -0.20300
F1544       F  0.76915025  0.04895761  0.91877165    -0.22900
C1545       C  0.76112756  0.11582347  0.13382764    -0.05800
C1546       C  0.73236654  0.11053289  0.15269786     0.00200
C1547       C  0.71074138  0.08484146  0.14329336    -0.08400
C1548       C  0.71819801  0.06704408  0.11443282    -0.05800
C1549       C  0.74583970  0.07429831  0.09487052     0.00100
C1550       C  0.76720842  0.09967813  0.10430041    -0.08300
C1551       C  0.79607723  0.11192596  0.08402962     0.62100
H1552       H  0.77870895  0.13433202  0.14107491     0.12700
H1553       H  0.70248535  0.04715874  0.10673466     0.12800
C1554       C  0.68021450  0.07579610  0.16305802     0.62300
F1555       F  0.79367217  0.14542844  0.08127747    -0.22900
F1556       F  0.79681626  0.09930176  0.05262288    -0.20200
F1557       F  0.82554255  0.10427059  0.09982028    -0.19900
F1558       F  0.65772797  0.10149663  0.16351574    -0.19900
F1559       F  0.68949348  0.06795836  0.19478147    -0.20300
F1560       F  0.66415001  0.04909714  0.14986728    -0.22900
C1561       C  0.68925407  0.07622092  0.93850963    -0.05800
C1562       C  0.67237290  0.04864102  0.92699028     0.00200
C1563       C  0.67915024  0.01797603  0.94166088    -0.08400
C1564       C  0.69979275  0.01690489  0.96932855    -0.05800
C1565       C  0.71713532  0.04420660  0.98042552     0.00100
C1566       C  0.71244453  0.07446517  0.96423720    -0.08300
C1567       C  0.73120849  0.10553872  0.97196700     0.62100
H1568       H  0.68456756  0.09960001  0.92711536     0.12700
H1569       H  0.70279100  0.99427904  0.98251334     0.12800
C1570       C  0.66632961  0.98599643  0.92792310     0.62300
F1571       F  0.70905001  0.12895478  0.98334487    -0.22900
F1572       F  0.74582886  0.11678200  0.94352843    -0.20200
F1573       F  0.75610367  0.10167896  0.99495268    -0.19900
F1574       F  0.67043576  0.98502403  0.89420501    -0.19900
F1575       F  0.63314580  0.98232901  0.93565972    -0.20300
F1576       F  0.68362132  0.95971972  0.94084603    -0.22900
C1577       C  0.91889503  0.08562832  0.21659416    -0.05800
C1578       C  0.92963500  0.05309936  0.21897544     0.00200
C1579       C  0.96383628  0.04622125  0.22461638    -0.08400
C1580       C  0.98647487  0.07216739  0.22409791    -0.05800
C1581       C  0.97587534  0.10439275  0.21892295     0.00100
C1582       C  0.94136812  0.11155815  0.21731015    -0.08300
C1583       C  0.92808733  0.14630366  0.21691284     0.62100
H1584       H  0.89258300  0.09061134  0.21343092     0.12700
H1585       H  0.51254399  0.06485279  0.22051344     0.12800
C1586       C  0.97668909  0.01177085  0.22996414     0.62300
F1587       F  0.89434771  0.14762937  0.22362163    -0.22900
F1588       F  0.93304038  0.15986831  0.18642937    -0.20200
F1589       F  0.94415641  0.16471766  0.24050424    -0.19900
F1590       F  0.96118404  0.48979559  0.18993452    -0.19900
F1591       F  0.96347785  0.99957243  0.25864241    -0.20300
F1592       F  0.01098832  0.01058226  0.23282014    -0.22900
C1593       C  0.78531711  0.01431420  0.12314088    -0.05800
C1594       C  0.80074392  0.02540345  0.09443946     0.00200
C1595       C  0.83580584  0.02931836  0.09389755    -0.08400
C1596       C  0.85379947  0.02253346  0.12254776    -0.05800
C1597       C  0.83826772  0.01247251  0.15151207     0.00100
C1598       C  0.80342138  0.00801175  0.15195185    -0.08300
C1599       C  0.78524819  0.99710025  0.18255893     0.62100
H1600       H  0.75877609  0.01023001  0.12263731     0.12700
H1601       H  0.88057955  0.02543794  0.12237014     0.12800
C1602       C  0.85601111  0.04051822  0.06450871     0.62300
F1603       F  0.75106447  0.99899660  0.17873597    -0.22900
F1604       F  0.79376413  0.01664099  0.20895615    -0.20200
F1605       F  0.78947887  0.46266448  0.19047145    -0.19900
F1606       F  0.83706481  0.05128618  0.03844534    -0.19900
F1607       F  0.87587626  0.01497616  0.05370412    -0.20300
F1608       F  0.87631933  0.06589765  0.07393880    -0.22900
C1609       C  0.78219749  0.21879719  0.22933904    -0.05800
C1610       C  0.76150834  0.21439970  0.20201863     0.00200
C1611       C  0.76535442  0.23436259  0.17402697    -0.08400
C1612       C  0.79064364  0.25776110  0.17410422    -0.05800
C1613       C  0.81199080  0.26148014  0.20105354     0.00100
C1614       C  0.80789347  0.24177287  0.22917653    -0.08300
C1615       C  0.83173697  0.24372793  0.25806621     0.62100
H1616       H  0.77905192  0.20294233  0.25024189     0.12700
H1617       H  0.79453164  0.27281090  0.15272188     0.12800
C1618       C  0.74307618  0.23077491  0.14410129     0.62300
F1619       F  0.82567363  0.21984941  0.28106348    -0.22900
F1620       F  0.82842658  0.27364911  0.27345136    -0.20200
F1621       F  0.86411994  0.23972078  0.24719344    -0.19900
F1622       F  0.71009092  0.23022360  0.15366722    -0.19900
F1623       F  0.75083925  0.20220863  0.12760578    -0.20300
F1624       F  0.74686488  0.25632715  0.12246365    -0.22900
C1625       C  0.94406184  0.25869423  0.10627853    -0.05800
C1626       C  0.96278525  0.28521763  0.09569827     0.00200
C1627       C  0.95910053  0.31564711  0.11208575    -0.08400
C1628       C  0.93578596  0.31835373  0.13766935    -0.05800
C1629       C  0.91688073  0.29177689  0.14818286     0.00100
C1630       C  0.92231804  0.26084353  0.13308673    -0.08300
C1631       C  0.90627858  0.22972118  0.14508252     0.62100
H1632       H  0.94631762  0.23595196  0.09290064     0.12700
H1633       H  0.93216036  0.34187495  0.14938829     0.12800
C1634       C  0.48147747  0.35229481  0.11027093     0.62300
F1635       F  0.92168514  0.20229484  0.13195532    -0.22900
F1636       F  0.87320144  0.22910015  0.13583861    -0.20200
F1637       F  0.90887909  0.22769170  0.17888173    -0.19900
F1638       F  0.50526166  0.34806024  0.08622486    -0.19900
F1639       F  0.49756049  0.36319725  0.13822418    -0.20300
F1640       F  0.45923444  0.37610995  0.10013464    -0.22900
C1641       C  0.92506003  0.22209866  0.35193997    -0.05800
C1642       C  0.92954638  0.25238456  0.36719703     0.00200
C1643       C  0.95918435  0.25872704  0.38476397    -0.08400
C1644       C  0.98407538  0.23447367  0.38578115    -0.05800
C1645       C  0.97937107  0.20404693  0.37094839     0.00100
C1646       C  0.94955682  0.19748877  0.35382920    -0.08300
C1647       C  0.94360435  0.16441593  0.33829513     0.62100
H1648       H  0.90176600  0.21757416  0.33942924     0.12700
H1649       H  0.51209193  0.24222777  0.40374724     0.12800
C1650       C  0.96377715  0.29048936  0.40335123     0.62300
F1651       F  0.91331163  0.16325282  0.32216898    -0.22900
F1652       F  0.94379757  0.14080541  0.36234878    -0.20200
F1653       F  0.96842291  0.15743858  0.31578634    -0.19900
F1654       F  0.93921792  0.29392029  0.42689816    -0.19900
F1655       F  0.96175054  0.31632620  0.38182641    -0.20300
F1656       F  0.50642229  0.29778942  0.42002255    -0.22900
C1657       C  0.84660126  0.27482909  0.45303720    -0.05800
C1658       C  0.83169409  0.29019308  0.42586895     0.00200
C1659       C  0.79815633  0.30108122  0.42840411    -0.08400
C1660       C  0.78126894  0.29649631  0.45835208    -0.05800
C1661       C  0.79611263  0.28011515  0.48487257     0.00100
C1662       C  0.82945696  0.26926570  0.48227151    -0.08300
C1663       C  0.84752594  0.25283611  0.51047551     0.62100
H1664       H  0.87251011  0.26742232  0.45151132     0.12700
H1665       H  0.75604183  0.30562096  0.46130062     0.12800
C1666       C  0.77979814  0.31632661  0.39967501     0.62300
F1667       F  0.82903764  0.22746982  0.52238527    -0.22900
F1668       F  0.85273614  0.27529603  0.53513891    -0.20200
F1669       F  0.87818299  0.24027000  0.50110677    -0.19900
F1670       F  0.78249751  0.29629312  0.37237703    -0.19900
F1671       F  0.79301263  0.34643046  0.39275496    -0.20300
F1672       F  0.74629465  0.32077478  0.40630504    -0.22900
C1673       C  0.81100426  0.05861930  0.34510468    -0.05800
C1674       C  0.81995903  0.04438655  0.37514006     0.00200
C1675       C  0.80201140  0.05258703  0.40391353    -0.08400
C1676       C  0.77720167  0.07678169  0.40203519    -0.05800
C1677       C  0.76936577  0.09239688  0.37239756     0.00100
C1678       C  0.78582701  0.08264943  0.34312257    -0.08300
C1679       C  0.77799850  0.09833695  0.31028989     0.62100
H1680       H  0.82470816  0.05145434  0.32332747     0.12700
H1681       H  0.76397247  0.08414763  0.42404091     0.12800
C1682       C  0.80835636  0.03541604  0.43630607     0.62300
F1683       F  0.79886487  0.08697268  0.28566102    -0.22900
F1684       F  0.78172209  0.13169723  0.31263479    -0.20200
F1685       F  0.74570865  0.09140224  0.30116333    -0.19900
F1686       F  0.82737996  0.52898527  0.45375426    -0.19900
F1687       F  0.79478436  0.49017654  0.43185954    -0.20300
F1688       F  0.78402887  0.04284618  0.45925017    -0.22900
C1689       C  0.94959065  0.04543231  0.46571242    -0.05800
C1690       C  0.96780938  0.01861720  0.47739552     0.00200
C1691       C  0.96918925  0.98963607  0.45827050    -0.08400
C1692       C  0.94837172  0.98725882  0.43055337    -0.05800
C1693       C  0.92895457  0.01385332  0.41994387     0.00100
C1694       C  0.93279236  0.04437376  0.43570833    -0.08300
C1695       C  0.90946153  0.56824882  0.42265456     0.62100
H1696       H  0.94382117  0.56431839  0.47890808     0.12700
H1697       H  0.94658342  0.96430825  0.41756937     0.12800
C1698       C  0.99291058  0.96172218  0.46627583     0.62300
F1699       F  0.92714789  0.59549460  0.43191387    -0.22900
F1700       F  0.87693958  0.57254321  0.43282973    -0.20200
F1701       F  0.92115655  0.07445706  0.38678733    -0.19900
F1702       F  0.51784719  0.98292594  0.48788242    -0.19900
F1703       F  0.51648484  0.98570329  0.43301832    -0.20300
F1704       F  0.98289601  0.94599280  0.49436751    -0.22900
C1705       C  0.89407747  0.49876019  0.40005335     0.80200
N1706       N  0.86585801  0.51702713  0.40064965    -0.78100
C1707       C  0.84038775  0.51107914  0.37997455     0.82700
N1708       N  0.84301320  0.48609145  0.35830714    -0.78000
C1709       C  0.87746621  0.97621427  0.35436518     0.82800
N1710       N  0.90353986  0.98232030  0.37461878    -0.79700
O1711       O  0.90125013  0.87244649  0.25261073    -0.71800
O1712       O  0.90429745  0.93355368  0.32366607    -0.72000
O1713       O  0.90267735  0.86780037  0.31761887    -0.71800
O1714       O  0.90403089  0.93816841  0.25875577    -0.71900
O1715       O  0.85022054  0.93610718  0.25406670    -0.71800
O1716       O  0.84929509  0.87422249  0.32374424    -0.71800
O1717       O  0.85071851  0.93972194  0.31914771    -0.71800
O1718       O  0.84760059  0.87042182  0.25865685    -0.72000
V1719       V  0.90216420  0.90300945  0.28816262     1.35200
V1720       V  0.85039158  0.90508241  0.28886622     1.35200
C1721       C  0.87368186  0.85957822  0.24527152     0.77500
C1722       C  0.87778147  0.94845008  0.33183460     0.77500
C1723       C  0.87593393  0.85907552  0.33084142     0.77400
C1724       C  0.87751194  0.94922532  0.24644473     0.77400
C1725       C  0.85652544  0.80253388  0.39829011     0.80200
N1726       N  0.85527838  0.82892189  0.37837504    -0.78100
C1727       C  0.87633551  0.83082014  0.35243596     0.82700
N1728       N  0.89848568  0.80628194  0.34635186    -0.78000
C1729       C  0.89977960  0.77969555  0.36583793     0.79200
N1730       N  0.87879169  0.77832958  0.39180400    -0.79700
C1731       C  0.89114121  0.80086877  0.17804942     0.80200
N1732       N  0.86462404  0.78108367  0.18107437    -0.78100
C1733       C  0.84199173  0.78556985  0.20523734     0.82700
N1734       N  0.84506480  0.81127912  0.22591813    -0.78000
C1735       C  0.87122781  0.83177432  0.22291497     0.82800
N1736       N  0.89439600  0.82637690  0.19922964    -0.79700
C1737       C  0.85564486  0.50463709  0.18293970     0.80200
N1738       N  0.87955668  0.52695927  0.18867325    -0.78100
C1739       C  0.90179554  0.52311706  0.21330169     0.82700
N1740       N  0.90009153  0.49626177  0.23252884    -0.78000
C1741       C  0.87901461  0.97785938  0.22543708     0.82800
N1742       N  0.85748320  0.98188110  0.20010138    -0.79700
C1743       C  0.75478980  0.55157034  0.06397883     0.02300
C1744       C  0.78043456  0.52772723  0.06453723     0.02300
C1745       C  0.78555564  0.50778832  0.03700261    -0.18300
C1746       C  0.76758633  0.51270068  0.00799171     0.02300
C1747       C  0.74211818  0.53686344  0.00718275     0.02300
C1748       C  0.73531381  0.55512448  0.03569660    -0.18300
H1749       H  0.71517154  0.57288583  0.03560772     0.04300
H1750       H  0.80365470  0.99282612  0.03788793     0.04300
C1751       C  0.64689784  0.55346709  0.90198410     0.80200
N1752       N  0.64890763  0.57815790  0.87993982    -0.78100
C1753       C  0.62344415  0.58400778  0.85875045     0.82700
N1754       N  0.59596270  0.56487457  0.85953867    -0.78000
C1755       C  0.59366811  0.54043047  0.88174989     0.82800
N1756       N  0.61917344  0.53504706  0.90276954    -0.79700
C1757       C  0.60910471  0.75840050  0.90096264     0.80200
N1758       N  0.63227159  0.78107947  0.89439186    -0.78100
C1759       C  0.65342562  0.77771755  0.86884349     0.82700
N1760       N  0.65079070  0.75137914  0.84888616    -0.78000
C1761       C  0.62678533  0.72886860  0.85416663     0.82800
N1762       N  0.60592316  0.73232624  0.88031557    -0.79700
O1763       O  0.60176650  0.62200945  0.75514202    -0.71800
O1764       O  0.59901647  0.68619538  0.82420856    -0.72000
O1765       O  0.60023579  0.68797504  0.75871823    -0.71800
O1766       O  0.59898715  0.62014199  0.82072024    -0.71900
O1767       O  0.65245355  0.62400146  0.82707722    -0.71800
O1768       O  0.65405723  0.68414619  0.75529684    -0.71800
O1769       O  0.65275489  0.68970993  0.82052010    -0.71800
O1770       O  0.65529914  0.61860890  0.76185533    -0.72000
V1771       V  0.60092679  0.65405903  0.78971184     1.35200
V1772       V  0.65268051  0.65408594  0.79119723     1.35200
C1773       C  0.62935717  0.60837016  0.74808024     0.77500
C1774       C  0.62580409  0.70014198  0.83251253     0.77500
C1775       C  0.62703501  0.69761211  0.74627300     0.77400
C1776       C  0.62524178  0.61061447  0.83476598     0.77400
C1777       C  0.61318041  0.54958836  0.68011584     0.80200
N1778       N  0.60891630  0.57465768  0.70193556    -0.78100
C1779       C  0.63241718  0.58069173  0.72521885     0.82700
N1780       N  0.66012276  0.56143639  0.72689995    -0.78000
C1781       C  0.66422010  0.53623343  0.70569546     0.82800
N1782       N  0.64094283  0.53090108  0.68244657    -0.79700
C1783       C  0.64488605  0.75325981  0.67679855     0.80200
N1784       N  0.62040339  0.77570662  0.68137357    -0.78100
C1785       C  0.59850176  0.77310018  0.70630859     0.82700
N1786       N  0.60087768  0.74752336  0.72699306    -0.78000
C1787       C  0.62571667  0.72508395  0.72336160     0.82800
N1788       N  0.64788763  0.72803402  0.69833820    -0.79700
C1789       C  0.51560836  0.76408678  0.07344060     0.02300
C1790       C  0.98147275  0.78482578  0.06820355     0.02300
C1791       C  0.97580407  0.80244169  0.03918219    -0.18300
C1792       C  0.99437034  0.79594282  0.01064136     0.02300
C1793       C  0.52601364  0.77571444  0.01577142     0.02300
C1794       C  0.53246188  0.75765142  0.04406650    -0.18300
H1795       H  0.55056468  0.73790419  0.04306277     0.04300
H1796       H  0.95686011  0.82140307  0.03886156     0.04300
O1797       O  0.84500479  0.92874948  0.82636566    -0.71800
O1798       O  0.90561217  0.92821958  0.75389529    -0.72000
O1799       O  0.83894556  0.92955997  0.76122699    -0.71800
O1800       O  0.91189826  0.92885697  0.81918477    -0.71900
O1801       O  0.90789299  0.87645428  0.82453030    -0.71800
O1802       O  0.84287338  0.87704284  0.75542076    -0.71800
O1803       O  0.90989572  0.87570439  0.75900076    -0.71800
O1804       O  0.84057939  0.87631869  0.82080228    -0.72000
V1805       V  0.87536956  0.92794097  0.79020289     1.35200
V1806       V  0.87533863  0.87727052  0.78997217     1.35200
C1807       C  0.83105647  0.90239289  0.83432400     0.77500
C1808       C  0.91916600  0.90148397  0.74536120     0.77500
C1809       C  0.82881927  0.90378059  0.74788348     0.77400
C1810       C  0.92213550  0.90287267  0.83219777     0.77400
C1811       C  0.77522412  0.92165528  0.90398395     0.80200
N1812       N  0.80077205  0.92342937  0.88228184    -0.78100
C1813       C  0.80341623  0.90136661  0.85754629     0.82700
N1814       N  0.78011185  0.87785812  0.85410113    -0.78000
C1815       C  0.75378658  0.87674347  0.87481673     0.82800
N1816       N  0.75168525  0.89853411  0.89988125    -0.79700
C1817       C  0.98084385  0.88453874  0.90043956     0.80200
N1818       N  0.50429094  0.91495028  0.90189338    -0.78100
C1819       C  0.49914447  0.93644341  0.87724975     0.82700
N1820       N  0.97117601  0.93035433  0.85329761    -0.78000
C1821       C  0.95044232  0.90444645  0.85500097     0.82800
N1822       N  0.95541769  0.88144673  0.87846020    -0.79700
C1823       C  0.77067111  0.88630737  0.67924007     0.80200
N1824       N  0.79561200  0.88264556  0.70169357    -0.78100
C1825       C  0.80101392  0.90604341  0.72469013     0.82700
N1826       N  0.78130610  0.93305746  0.72543935    -0.78000
C1827       C  0.75658179  0.93701389  0.70321030     0.82800
N1828       N  0.75147646  0.91367796  0.68016640    -0.79700
C1829       C  0.97432137  0.91868037  0.67459535     0.80200
N1830       N  0.50148550  0.89765088  0.68453997    -0.78100
C1831       C  0.49872182  0.87412170  0.70749871     0.82700
N1832       N  0.96683783  0.87317050  0.72237536    -0.78000
C1833       C  0.94594672  0.89925916  0.72117794     0.82800
N1834       N  0.94977328  0.92198295  0.69741015    -0.79700
C1835       C  0.52488315  0.67144914  0.17979407     0.80200
N1836       N  0.55071419  0.67317476  0.20134497    -0.78100
C1837       C  0.55376473  0.65092117  0.22569510     0.82700
N1838       N  0.53077364  0.62713095  0.22873122    -0.78000
C1839       C  0.50426697  0.62608342  0.20821682     0.82800
N1840       N  0.50158970  0.64813697  0.18372952    -0.79700
C1841       C  0.72893940  0.63458464  0.17773974     0.80200
N1842       N  0.70466544  0.63070583  0.20070746    -0.78100
C1843       C  0.70036404  0.65325566  0.22504618     0.82700
N1844       N  0.72061498  0.67957074  0.22656966    -0.78000
C1845       C  0.74495877  0.68351012  0.20406157     0.82800
N1846       N  0.74884653  0.66101735  0.18003923    -0.79700
O1847       O  0.65855097  0.67629114  0.32793510    -0.71800
O1848       O  0.59614524  0.67779231  0.25678546    -0.72000
O1849       O  0.59176836  0.67815139  0.32213821    -0.71800
O1850       O  0.66313168  0.67727774  0.26250448    -0.71900
O1851       O  0.65858336  0.62497447  0.25616091    -0.71800
O1852       O  0.59558434  0.62560234  0.32707786    -0.71800
O1853       O  0.59135694  0.62538642  0.26158074    -0.71800
O1854       O  0.66236830  0.62380721  0.32170869    -0.72000
V1855       V  0.62739451  0.67646595  0.29228729     1.35200
V1856       V  0.62698950  0.62581597  0.29160527     1.35200
C1857       C  0.67209408  0.64940709  0.33571176     0.77500
C1858       C  0.58180737  0.65161545  0.24860584     0.77500
C1859       C  0.58201227  0.65240236  0.33549767     0.77400
C1860       C  0.67278887  0.65137273  0.24865253     0.77400
C1861       C  0.52720957  0.63637609  0.40680089     0.80200
N1862       N  0.55156137  0.63252941  0.38385515    -0.78100
C1863       C  0.55504975  0.65481275  0.35960911     0.82700
N1864       N  0.53435703  0.68112527  0.35851755    -0.78000
C1865       C  0.50982233  0.68502071  0.38092583     0.82800
N1866       N  0.99596969  0.65251355  0.39114787    -0.79700
C1867       C  0.73033527  0.66616905  0.40452858     0.80200
N1868       N  0.70488560  0.66984545  0.38270058    -0.78100
C1869       C  0.69940457  0.64676993  0.35934147     0.82700
N1870       N  0.71923107  0.61992727  0.35788251    -0.78000
C1871       C  0.74486152  0.61608980  0.37897815     0.82800
N1872       N  0.75008904  0.63907065  0.40239086    -0.79700
C1873       C  0.98427647  0.52210686  0.50791558     0.02300
C1874       C  0.50565746  0.55125427  0.51747601     0.02300
C1875       C  0.52497257  0.55425170  0.54588190    -0.18300
C1876       C  0.51923254  0.53465366  0.57308422     0.02300
C1877       C  0.99851680  0.50774124  0.56440583     0.02300
C1878       C  0.97992709  0.50254391  0.53570498    -0.18300
H1879       H  0.95967276  0.98513179  0.53351855     0.04300
H1880       H  0.54494125  0.57173575  0.54673741     0.04300
C1881       C  0.77744888  0.78001606  0.51421259     0.02300
C1882       C  0.75528664  0.75346514  0.51471138     0.02300
C1883       C  0.73555699  0.74875741  0.54246855    -0.18300
C1884       C  0.73876456  0.76840516  0.57043761     0.02300
C1885       C  0.76143739  0.79463473  0.57038992     0.02300
C1886       C  0.77936109  0.80083128  0.54158437    -0.18300
H1887       H  0.79481886  0.82221073  0.54017919     0.04300
H1888       H  0.71721502  0.72956249  0.54228284     0.04300
C1889       C  0.75405689  0.67858318  0.45930759    -0.05800
C1890       C  0.73610342  0.69001247  0.43187513     0.00200
C1891       C  0.72491585  0.72306622  0.43180832    -0.08400
C1892       C  0.73190776  0.74280786  0.45933011    -0.05800
C1893       C  0.75041928  0.73132708  0.48612456     0.00100
C1894       C  0.76132741  0.69848823  0.48643788    -0.08300
C1895       C  0.78031070  0.68420909  0.51536564     0.62100
H1896       H  0.76201870  0.65334438  0.45979585     0.12700
H1897       H  0.72217928  0.76746855  0.46054315     0.12800
C1898       C  0.70604578  0.73801969  0.40315958     0.62300
F1899       F  0.76028152  0.68372220  0.54286513    -0.22900
F1900       F  0.80795748  0.70266565  0.52187479    -0.20200
F1901       F  0.79105242  0.65263291  0.50925791    -0.19900
F1902       F  0.67496323  0.72416989  0.40049627    -0.19900
F1903       F  0.72367518  0.73313973  0.37438608    -0.20300
F1904       F  0.70139980  0.77125084  0.40712059    -0.22900
C1905       C  0.00657177  0.62188752  0.45364285    -0.05800
C1906       C  0.52359347  0.61356510  0.43487005     0.00200
C1907       C  0.53175651  0.57982011  0.43330662    -0.08400
C1908       C  0.52586893  0.56052106  0.46107089    -0.05800
C1909       C  0.51217229  0.57360705  0.48990191     0.00100
C1910       C  0.00265559  0.60330242  0.48207615    -0.08300
C1911       C  0.98763339  0.61923409  0.51255419     0.62100
H1912       H  0.99992274  0.64749714  0.45413435     0.12700
H1913       H  0.53196695  0.53483363  0.46059688     0.12800
C1914       C  0.54593810  0.56373161  0.40265077     0.62300
F1915       F  0.97429200  0.64967351  0.50576335    -0.22900
F1916       F  0.01185693  0.62310537  0.53626853    -0.20200
F1917       F  0.96237499  0.60039670  0.52501377    -0.19900
F1918       F  0.57775245  0.57486284  0.39707967    -0.19900
F1919       F  0.52588160  0.57065264  0.37592265    -0.20300
F1920       F  0.54784189  0.53020674  0.40558773    -0.22900
C1921       C  0.49192008  0.93357637  0.62517858    -0.05800
C1922       C  0.97852643  0.94235111  0.64693278     0.00200
C1923       C  0.95741919  0.96991201  0.64095611    -0.08400
C1924       C  0.96356669  0.98920309  0.61313382    -0.05800
C1925       C  0.99023655  0.98286975  0.59194553     0.00100
C1926       C  0.49490305  0.95318724  0.59731650    -0.08300
C1927       C  0.52541376  0.44206937  0.57188949     0.62100
H1928       H  0.49806668  0.90804406  0.62326941     0.12700
H1929       H  0.94773061  0.00997076  0.60779658     0.12800
C1930       C  0.92882039  0.97981200  0.66342486     0.62300
F1931       F  0.55599070  0.43273607  0.58454461    -0.22900
F1932       F  0.53110002  0.46315173  0.54631836    -0.20200
F1933       F  0.48320753  0.93599456  0.54266796    -0.19900
F1934       F  0.94071771  0.98574663  0.69474517    -0.19900
F1935       F  0.90533141  0.95549026  0.66410707    -0.20300
F1936       F  0.91291178  0.00797029  0.65297873    -0.22900
C1937       C  0.73599192  0.83492359  0.60863727    -0.05800
C1938       C  0.76449299  0.81745475  0.59885453     0.00200
C1939       C  0.79475613  0.82218764  0.61620294    -0.08400
C1940       C  0.79515736  0.84454315  0.64240518    -0.05800
C1941       C  0.76663644  0.86198879  0.65229875     0.00100
C1942       C  0.73605309  0.85629587  0.63571689    -0.08300
C1943       C  0.70324251  0.87162311  0.64658438     0.62100
H1944       H  0.71344273  0.83196094  0.59447497     0.12700
H1945       H  0.81840224  0.84922151  0.65491147     0.12800
C1946       C  0.82689000  0.80438543  0.60736272     0.62300
F1947       F  0.67633239  0.85675304  0.63173961    -0.22900
F1948       F  0.70225684  0.90416846  0.63825733    -0.20200
F1949       F  0.69947261  0.86843274  0.68015817    -0.19900
F1950       F  0.82132796  0.77150600  0.60400612    -0.19900
F1951       F  0.85101018  0.80821343  0.63133225    -0.20300
F1952       F  0.83949696  0.81639369  0.57841884    -0.22900
C1953       C  0.53276914  0.72670088  0.15750452    -0.05800
C1954       C  0.52261609  0.69453278  0.15200790     0.00200
C1955       C  0.51260704  0.68493597  0.11993908    -0.08400
C1956       C  0.51129580  0.70857088  0.09521207    -0.05800
C1957       C  0.52072541  0.74088505  0.10094157     0.00100
C1958       C  0.53315153  0.74981643  0.13225692    -0.08300
C1959       C  0.54822550  0.78256190  0.14027365     0.62100
H1960       H  0.54126296  0.73377112  0.18177262     0.12700
H1961       H  0.99207831  0.69817190  0.06826677     0.12800
C1962       C  0.99393605  0.64724430  0.11004659     0.62300
F1963       F  0.52798478  0.79898989  0.16235533    -0.22900
F1964       F  0.55269299  0.80166151  0.11291517    -0.20200
F1965       F  0.57912622  0.77779570  0.15455998    -0.19900
F1966       F  0.96447150  0.63967148  0.12550508    -0.19900
F1967       F  0.52895622  0.62912369  0.12224873    -0.20300
F1968       F  0.98959245  0.64195023  0.07671865    -0.22900
C1969       C  0.95741437  0.84378962  0.93862025    -0.05800
C1970       C  0.98546238  0.86069302  0.92757614     0.00200
C1971       C  0.52203595  0.86001266  0.94781766    -0.08400
C1972       C  0.52425142  0.83991662  0.97554311    -0.05800
C1973       C  0.98987199  0.81711084  0.98131833     0.00100
C1974       C  0.95916014  0.82136007  0.96455121    -0.08300
C1975       C  0.92739853  0.80348431  0.97284410     0.62100
H1976       H  0.93362596  0.84803836  0.92678378     0.12700
H1977       H  0.54778126  0.83739137  0.98820373     0.12800
C1978       C  0.55399040  0.87390150  0.93394820     0.62300
F1979       F  0.91277776  0.79214448  0.94426702    -0.22900
F1980       F  0.90554593  0.82485706  0.98815194    -0.20200
F1981       F  0.93253259  0.77699209  0.99295621    -0.19900
F1982       F  0.55560037  0.90686643  0.94066749    -0.19900
F1983       F  0.55531355  0.86866812  0.90039050    -0.20300
F1984       F  0.58192716  0.85923692  0.94750651    -0.22900
C1985       C  0.54741714  0.79805269  0.68436567    -0.05800
C1986       C  0.57138183  0.79723219  0.70934525     0.00200
C1987       C  0.57053001  0.82080320  0.73478222    -0.08400
C1988       C  0.54594760  0.84543368  0.73370185    -0.05800
C1989       C  0.52261082  0.84676786  0.70811824     0.00100
C1990       C  0.52254516  0.82228026  0.68358157    -0.08300
C1991       C  0.98037830  0.80765977  0.66410855     0.62100
H1992       H  0.54858822  0.77964748  0.66524520     0.12700
H1993       H  0.54509470  0.86419606  0.75247853     0.12800
C1994       C  0.59599989  0.82029922  0.76229694     0.62300
F1995       F  0.98099588  0.77738489  0.64901013    -0.22900
F1996       F  0.97874550  0.83110895  0.63992691    -0.20200
F1997       F  0.95208202  0.80979669  0.68328929    -0.19900
F1998       F  0.62773282  0.82155685  0.74933533    -0.19900
F1999       F  0.59281779  0.79200812  0.78018807    -0.20300
F2000       F  0.59191065  0.84645427  0.78353445    -0.22900
C2001       C  0.70080993  0.74465859  0.65246302    -0.05800
C2002       C  0.66812309  0.75651173  0.64864023     0.00200
C2003       C  0.65852560  0.77049507  0.61801800    -0.08400
C2004       C  0.68266258  0.77352335  0.59340673    -0.05800
C2005       C  0.71543143  0.76264062  0.59782285     0.00100
C2006       C  0.72436529  0.74643084  0.62712749    -0.08300
C2007       C  0.75771505  0.72984968  0.63271849     0.62100
H2008       H  0.70802998  0.73338678  0.67542670     0.12700
H2009       H  0.67631397  0.78504294  0.57034092     0.12800
C2010       C  0.62312405  0.78167324  0.61039682     0.62300
F2011       F  0.77546283  0.74725553  0.65586203    -0.22900
F2012       F  0.77635874  0.72696876  0.60441268    -0.20200
F2013       F  0.75271326  0.69871641  0.64437870    -0.19900
F2014       F  0.61559791  0.80977120  0.62780869    -0.19900
F2015       F  0.60092289  0.75749291  0.61838367    -0.20300
F2016       F  0.61883435  0.78849898  0.57739201    -0.22900
C2017       C  0.71216372  0.51095580  0.67762673    -0.05800
C2018       C  0.69375703  0.51461114  0.70669596     0.00200
C2019       C  0.69175483  0.99415783  0.73855760    -0.08400
C2020       C  0.71649210  0.96989763  0.73528615    -0.05800
C2021       C  0.73380786  0.96525082  0.70571021     0.00100
C2022       C  0.72837101  0.98688316  0.67929828    -0.08300
C2023       C  0.74996619  0.98591939  0.64876816     0.62100
H2024       H  0.70630570  0.52676298  0.65717794     0.12700
H2025       H  0.72176511  0.95358702  0.75548038     0.12800
C2026       C  0.67292877  0.99793902  0.77067589     0.62300
F2027       F  0.75043374  0.51026557  0.62207060    -0.22900
F2028       F  0.74422854  0.95781751  0.63101663    -0.20200
F2029       F  0.78312859  0.98688096  0.65775407    -0.19900
F2030       F  0.63929332  0.99357116  0.76534923    -0.19900
F2031       F  0.67800076  0.02869569  0.78354914    -0.20300
F2032       F  0.68341736  0.97548284  0.79381117    -0.22900
C2033       C  0.56083722  0.56486045  0.65115269    -0.05800
C2034       C  0.58847763  0.54355267  0.65321626     0.00200
C2035       C  0.59174948  0.51806057  0.62917597    -0.08400
C2036       C  0.56806796  0.51629250  0.60389544    -0.05800
C2037       C  0.54121190  0.53794423  0.60191888     0.00100
C2038       C  0.53699278  0.56239638  0.62610440    -0.08300
C2039       C  0.50856167  0.09443286  0.62136753     0.62100
H2040       H  0.55765473  0.58405672  0.66923415     0.12700
H2041       H  0.57060269  0.49817623  0.58469565     0.12800
C2042       C  0.61976118  0.49270700  0.62895802     0.62300
F2043       F  0.52448654  0.12221142  0.61104818    -0.22900
F2044       F  0.49394208  0.10065924  0.65152088    -0.20200
F2045       F  0.97692629  0.06483788  0.60458307    -0.19900
F2046       F  0.62018881  0.47590009  0.65829131    -0.19900
F2047       F  0.64994075  0.50768402  0.62389683    -0.20300
F2048       F  0.61604255  0.46985955  0.60414221    -0.22900
C2049       C  0.73754073  0.81925735  0.86595783    -0.05800
C2050       C  0.72768830  0.85192421  0.87008593     0.00200
C2051       C  0.69340258  0.86021125  0.86912335    -0.08400
C2052       C  0.67003367  0.83513026  0.86687552    -0.05800
C2053       C  0.67975387  0.80230464  0.86464614     0.00100
C2054       C  0.71407295  0.79411461  0.86315972    -0.08300
C2055       C  0.72591777  0.75905608  0.85971242     0.62100
H2056       H  0.76387565  0.81351152  0.86582746     0.12700
H2057       H  0.64371417  0.84094862  0.86779983     0.12800
C2058       C  0.68133266  0.89531573  0.87037125     0.62300
F2059       F  0.76022869  0.75637866  0.86123631    -0.22900
F2060       F  0.71577887  0.74673761  0.82971570    -0.20200
F2061       F  0.71285563  0.74043001  0.88466519    -0.19900
F2062       F  0.69896889  0.91385327  0.84826880    -0.19900
F2063       F  0.68564550  0.90758366  0.90165476    -0.20300
F2064       F  0.64793250  0.89810257  0.86246686    -0.22900
C2065       C  0.57952457  0.77891507  0.98773477    -0.05800
C2066       C  0.54657034  0.76855952  0.98641669     0.00200
C2067       C  0.53475881  0.75255728  0.95787381    -0.08400
C2068       C  0.55591764  0.74993103  0.93050802    -0.05800
C2069       C  0.58859023  0.76172727  0.93117276     0.00100
C2070       C  0.60099194  0.77583572  0.96080372    -0.08300
C2071       C  0.63664696  0.78738278  0.96491823     0.62100
H2072       H  0.58800893  0.79052509  0.01013365     0.12700
H2073       H  0.54669157  0.73847928  0.90829648     0.12800
C2074       C  0.50079811  0.73710512  0.95501213     0.62300
F2075       F  0.64412791  0.79441160  0.99737403    -0.22900
F2076       F  0.64142266  0.81549994  0.94711757    -0.20200
F2077       F  0.65868212  0.76340097  0.95451992    -0.19900
F2078       F  0.97877069  0.75431324  0.92646890    -0.19900
F2079       F  0.97912470  0.73230080  0.97691075    -0.20300
F2080       F  0.00088691  0.70455706  0.93486228    -0.22900
C2081       C  0.52472553  0.98494476  0.90172570    -0.05800
C2082       C  0.52122751  0.96478423  0.87411817     0.00200
C2083       C  0.54046922  0.97069998  0.84563462    -0.08400
C2084       C  0.56408404  0.99584101  0.84661646    -0.05800
C2085       C  0.56521816  0.51774930  0.88132907     0.00100
C2086       C  0.54792196  0.50901163  0.91024134    -0.08300
C2087       C  0.55411098  0.52585725  0.94296479     0.62100
H2088       H  0.00704815  0.97551223  0.92239692     0.12700
H2089       H  0.58002329  0.00010698  0.82568443     0.12800
C2090       C  0.53691071  0.94992915  0.81489096     0.62300
F2091       F  0.52940041  0.51910919  0.96548322    -0.22900
F2092       F  0.55479510  0.55922716  0.93880910    -0.20200
F2093       F  0.58405022  0.51544059  0.95602555    -0.19900
F2094       F  0.50562579  0.95464634  0.80150973    -0.19900
F2095       F  0.54121935  0.91738842  0.82251709    -0.20300
F2096       F  0.56016476  0.95781757  0.79127506    -0.22900
C2097       C  0.76380809  0.95977865  0.98849921    -0.05800
C2098       C  0.77046751  0.99252823  0.98183068     0.00200
C2099       C  0.78034276  0.00158817  0.94980842    -0.08400
C2100       C  0.78049537  0.97777949  0.92499527    -0.05800
C2101       C  0.77302029  0.94515237  0.93149446     0.00100
C2102       C  0.76549994  0.93567550  0.96405390    -0.08300
C2103       C  0.76007157  0.90039803  0.97350809     0.62100
H2104       H  0.75653249  0.95331981  0.01319065     0.12700
H2105       H  0.78706142  0.98473012  0.90021914     0.12800
C2106       C  0.80017611  0.53329215  0.94226892     0.62300
F2107       F  0.75968297  0.89644062  0.00724912    -0.22900
F2108       F  0.78548641  0.88100412  0.96111679    -0.20200
F2109       F  0.72992734  0.88991799  0.96129477    -0.19900
F2110       F  0.83176975  0.52999087  0.92917646    -0.19900
F2111       F  0.80264289  0.55256607  0.96998893    -0.20300
F2112       F  0.77998382  0.54889125  0.91965549    -0.22900
C2113       C  0.76327551  0.61601796  0.13059090    -0.05800
C2114       C  0.73416841  0.61160478  0.14931479     0.00200
C2115       C  0.71106460  0.58767008  0.13856344    -0.08400
C2116       C  0.71910245  0.56843966  0.11075617    -0.05800
C2117       C  0.74810550  0.57341788  0.09242046     0.00100
C2118       C  0.76972143  0.59877677  0.10155788    -0.08300
C2119       C  0.79895101  0.61016090  0.08120336     0.62100
H2120       H  0.78111411  0.63429374  0.13780115     0.12700
H2121       H  0.70259911  0.54928736  0.10278971     0.12800
C2122       C  0.67773132  0.58267215  0.15518260     0.62300
F2123       F  0.79508767  0.64304891  0.07491061    -0.22900
F2124       F  0.80179000  0.59447500  0.05133049    -0.20200
F2125       F  0.82806039  0.60549620  0.09872509    -0.19900
F2126       F  0.65982568  0.61161580  0.15550099    -0.19900
F2127       F  0.68257687  0.57184692  0.18691839    -0.20300
F2128       F  0.65868487  0.55978759  0.13891156    -0.22900
C2129       C  0.69071102  0.57517438  0.93842389    -0.05800
C2130       C  0.67362866  0.54795679  0.92646179     0.00200
C2131       C  0.68159256  0.51669037  0.93911286    -0.08400
C2132       C  0.70345811  0.51456439  0.96582862    -0.05800
C2133       C  0.72056036  0.54170995  0.97789715     0.00100
C2134       C  0.71494991  0.57255519  0.96312139    -0.08300
C2135       C  0.73319123  0.60358821  0.97211672     0.62100
H2136       H  0.68503252  0.59899628  0.92841199     0.12700
H2137       H  0.70688726  0.49138635  0.97788510     0.12800
C2138       C  0.66835694  0.48533433  0.92426352     0.62300
F2139       F  0.71136097  0.62481737  0.98767824    -0.22900
F2140       F  0.74462677  0.61814033  0.94380040    -0.20200
F2141       F  0.76036007  0.59854474  0.99222007    -0.19900
F2142       F  0.66999535  0.48655467  0.89037432    -0.19900
F2143       F  0.63587806  0.48059185  0.93387170    -0.20300
F2144       F  0.68689919  0.45856081  0.93426486    -0.22900
C2145       C  0.91678708  0.58091937  0.21800513    -0.05800
C2146       C  0.92760278  0.54831839  0.21778768     0.00200
C2147       C  0.96215611  0.54120855  0.21689239    -0.08400
C2148       C  0.98469701  0.56725223  0.21504654    -0.05800
C2149       C  0.97367295  0.59977774  0.21333887     0.00100
C2150       C  0.93917637  0.60687778  0.21586900    -0.08300
C2151       C  0.92582493  0.64162567  0.21633333     0.62100
H2152       H  0.89028633  0.58588600  0.21863586     0.12700
H2153       H  0.51577128  0.56271791  0.20445472     0.12800
C2154       C  0.97506912  0.50636772  0.21614976     0.62300
F2155       F  0.89260795  0.64299574  0.22519830    -0.22900
F2156       F  0.92867499  0.65513911  0.18550858    -0.20200
F2157       F  0.94344885  0.66008342  0.23875229    -0.19900
F2158       F  0.96775025  0.99212439  0.20379734    -0.19900
F2159       F  0.96680826  0.49099059  0.24506430    -0.20300
F2160       F  0.00930230  0.50487303  0.21281625    -0.22900
C2161       C  0.78363571  0.51116527  0.12254016    -0.05800
C2162       C  0.80055779  0.52158812  0.09435824     0.00200
C2163       C  0.83575124  0.52419206  0.09510846    -0.08400
C2164       C  0.85230802  0.51707415  0.12443100    -0.05800
C2165       C  0.83536130  0.50795116  0.15292284     0.00100
C2166       C  0.80043056  0.50439207  0.15206623    -0.08300
C2167       C  0.78089213  0.49420684  0.18207536     0.62100
H2168       H  0.75695224  0.50818680  0.12110156     0.12700
H2169       H  0.87918234  0.51912187  0.12519052     0.12800
C2170       C  0.85772310  0.53445263  0.06664211     0.62300
F2171       F  0.74692803  0.49525713  0.17646446    -0.22900
F2172       F  0.78773447  0.51485263  0.20809094    -0.20200
F2173       F  0.79362983  0.96511230  0.18932765    -0.19900
F2174       F  0.84050788  0.54434648  0.03913413    -0.19900
F2175       F  0.87820595  0.50858531  0.05788387    -0.20300
F2176       F  0.87744165  0.56009912  0.07656538    -0.22900
C2177       C  0.78463385  0.71857146  0.23433345    -0.05800
C2178       C  0.76703593  0.71212469  0.20522670     0.00200
C2179       C  0.77195308  0.73212670  0.17742038    -0.08400
C2180       C  0.79540766  0.75711155  0.17934964    -0.05800
C2181       C  0.81412523  0.76259776  0.20781625     0.00100
C2182       C  0.80867148  0.74330612  0.23599282    -0.08300
C2183       C  0.82937704  0.74763312  0.26690199     0.62100
H2184       H  0.78043924  0.70309199  0.25532805     0.12700
H2185       H  0.80029934  0.77193041  0.15800736     0.12800
C2186       C  0.75302162  0.72703464  0.14553427     0.62300
F2187       F  0.82215431  0.72444651  0.29028960    -0.22900
F2188       F  0.82313424  0.77798816  0.28049029    -0.20200
F2189       F  0.86283706  0.74483444  0.25938302    -0.19900
F2190       F  0.71947053  0.72349433  0.15185256    -0.19900
F2191       F  0.76503913  0.69954446  0.12963986    -0.20300
F2192       F  0.75647841  0.75315106  0.12452663    -0.22900
C2193       C  0.94055763  0.76369410  0.10713395    -0.05800
C2194       C  0.95928163  0.79031682  0.09683027     0.00200
C2195       C  0.95616376  0.82041871  0.11390542    -0.08400
C2196       C  0.93335860  0.82271276  0.13992058    -0.05800
C2197       C  0.91518248  0.79576250  0.15075621     0.00100
C2198       C  0.92011966  0.76514263  0.13490852    -0.08300
C2199       C  0.90533897  0.73355980  0.14734738     0.62100
H2200       H  0.94236221  0.74124105  0.09321532     0.12700
H2201       H  0.93005644  0.84602600  0.15213373     0.12800
C2202       C  0.48616892  0.85420810  0.11619022     0.62300
F2203       F  0.92025956  0.70656192  0.13286262    -0.22900
F2204       F  0.87174367  0.73257135  0.14019812    -0.20200
F2205       F  0.91020540  0.73099295  0.18087678    -0.19900
F2206       F  0.51162396  0.84995916  0.09385515    -0.19900
F2207       F  0.50027355  0.86400887  0.14558498    -0.20300
F2208       F  0.46537307  0.87880917  0.10508188    -0.22900
C2209       C  0.91517608  0.72201639  0.37403691    -0.05800
C2210       C  0.92357119  0.75200834  0.36003933     0.00200
C2211       C  0.95441472  0.75438674  0.34318297    -0.08400
C2212       C  0.97731152  0.72820783  0.34540215    -0.05800
C2213       C  0.96999420  0.69936022  0.36234933     0.00100
C2214       C  0.93729731  0.69541770  0.37487695    -0.08300
C2215       C  0.92510656  0.66372383  0.38943705     0.62100
H2216       H  0.89094963  0.71959145  0.38522578     0.12700
H2217       H  0.49706692  0.72326494  0.43136130     0.12800
C2218       C  0.96369005  0.78401757  0.32311938     0.62300
F2219       F  0.89080354  0.66340924  0.39238572    -0.22900
F2220       F  0.93845625  0.65971830  0.42044905    -0.20200
F2221       F  0.93407607  0.63777053  0.36942396    -0.19900
F2222       F  0.96506378  0.81127578  0.34310483    -0.19900
F2223       F  0.94040848  0.78881796  0.29852886    -0.20300
F2224       F  0.48259239  0.76781243  0.46631680    -0.22900
C2225       C  0.85077489  0.78572158  0.45575887    -0.05800
C2226       C  0.83577085  0.80011379  0.42822057     0.00200
C2227       C  0.80176212  0.80948814  0.42974342    -0.08400
C2228       C  0.78395362  0.80309310  0.45870855    -0.05800
C2229       C  0.79863096  0.78692358  0.48541591     0.00100
C2230       C  0.83303597  0.77905101  0.48441935    -0.08300
C2231       C  0.85281744  0.76377448  0.51226317     0.62100
H2232       H  0.87702453  0.77928503  0.45486754     0.12700
H2233       H  0.75815555  0.81070017  0.46077013     0.12800
C2234       C  0.78397669  0.82514767  0.40087962     0.62300
F2235       F  0.86671508  0.73466528  0.50154697    -0.22900
F2236       F  0.83417516  0.75758729  0.53981749    -0.20200
F2237       F  0.87820202  0.78447958  0.52124529    -0.19900
F2238       F  0.78779742  0.80587627  0.37315750    -0.19900
F2239       F  0.79694286  0.85561597  0.39514743    -0.20300
F2240       F  0.75024134  0.82898749  0.40663511    -0.22900
C2241       C  0.80531256  0.55024931  0.34944134    -0.05800
C2242       C  0.81197826  0.53410335  0.37900160     0.00200
C2243       C  0.79380510  0.54258480  0.40757052    -0.08400
C2244       C  0.77169795  0.56927125  0.40634504    -0.05800
C2245       C  0.76639199  0.58670757  0.37726926     0.00100
C2246       C  0.78247077  0.57642600  0.34791892    -0.08300
C2247       C  0.77673806  0.59373952  0.31547978     0.62100
H2248       H  0.81916429  0.54297027  0.32779627     0.12700
H2249       H  0.75855731  0.57695746  0.42829164     0.12800
C2250       C  0.79711316  0.52304627  0.43895894     0.62300
F2251       F  0.79745839  0.58182735  0.29099741    -0.22900
F2252       F  0.78275052  0.62664930  0.31912802    -0.20200
F2253       F  0.74429509  0.58935740  0.30523319    -0.19900
F2254       F  0.83860290  0.04467095  0.44919656    -0.19900
F2255       F  0.80849720  0.00206568  0.43146440    -0.20300
F2256       F  0.77225589  0.53097983  0.46116911    -0.22900
C2257       C  0.94389173  0.54122262  0.46614879    -0.05800
C2258       C  0.96393465  0.51580068  0.47798613     0.00200
C2259       C  0.96475771  0.48575493  0.46063608    -0.08400
C2260       C  0.94193003  0.48092704  0.43484164    -0.05800
C2261       C  0.92092441  0.50619677  0.42391895     0.00100
C2262       C  0.92444753  0.53773026  0.43787921    -0.08300
C2263       C  0.92125950  0.07633177  0.42072084     0.62100
H2264       H  0.94941323  0.06785742  0.47954799     0.12700
H2265       H  0.94019747  0.45712508  0.42345445     0.12800
C2266       C  0.98920919  0.45861023  0.46884583     0.62300
F2267       F  0.94260221  0.10115547  0.42944904    -0.22900
F2268       F  0.88976760  0.08432431  0.43181229    -0.20200
F2269       F  0.91062664  0.56629695  0.38873865    -0.19900
F2270       F  0.51623066  0.47666464  0.47853521    -0.19900
F2271       F  0.48530841  0.44320068  0.44807770    -0.20300
F2272       F  0.97604904  0.43909630  0.49297237    -0.22900
loop_ 
_geom_bond_atom_site_label_1 
_geom_bond_atom_site_label_2 
_geom_bond_distance 
_geom_bond_site_symmetry_2 
_ccdc_geom_bond_type 
C1            N2   1.353       .  A
C1          N574   1.362   1_545  A
C1          C557   1.486       .  S
N2            C3   1.352       .  A
C3            N4   1.356       .  A
C3          C538   1.483       .  S
N4          C573   1.362   1_545  A
C5            N6   1.363       .  A
C5          N572   1.361       .  A
C5           C18   1.472       .  S
N6          C569   1.367       .  A
O7           V15   1.919       .  S
O7           C17   1.269       .  A
O8           V15   1.920       .  S
O8           C18   1.269       .  A
O9           V15   1.884       .  S
O9           C19   1.260       .  A
O10          V15   1.884       .  S
O10          C20   1.260       .  A
O11          V16   1.917       .  S
O11          C20   1.268       .  A
O12          V16   1.916       .  S
O12          C19   1.268       .  A
O13          V16   1.889       .  S
O13          C18   1.261       .  A
O14          V16   1.889       .  S
O14          C17   1.261       .  A
V15          V16   2.082       .  T
C17          C31   1.472       .  S
C19          C23   1.465       .  S
C20          C37   1.466       .  S
C21          N22   1.361       .  A
C21          N26   1.357       .  A
C21         C522   1.484       .  S
N22          C23   1.361       .  A
C23          N24   1.361       .  A
N24          C25   1.354       .  A
C25          N26   1.348       .  A
C25         C506   1.469       .  S
C27          N28   1.353       .  A
C27          N32   1.366       .  A
C27         C493   1.492       .  S
N28          C29   1.350       .  A
C29          N30   1.355       .  A
C29         C477   1.476       .  S
N30          C31   1.362       .  A
C31          N32   1.363       .  A
C33          N34   1.356       .  A
C33         N606   1.359   1_545  A
C33         C461   1.480       .  S
N34          C35   1.352       .  A
C35          N36   1.356   1_545  A
C35         C442   1.482       .  S
N36         C605   1.362       .  A
C37          N38   1.362       .  A
C37         N604   1.361       .  A
N38         C601   1.363       .  A
C39         C413   1.480       .  S
C39          C40   1.411       .  A
C39          C44   1.400       .  A
C40         C458   1.478       .  S
C40          C41   1.398       .  A
C41          C42   1.400       .  A
C41         H614   1.085   1_545  S
C42         C962   1.483   1_544  S
C42          C43   1.423       .  A
C43         C429   1.493   1_554  S
C43          C44   1.403       .  A
C44          H45   1.081       .  S
H46         C609   1.085       .  S
C47          N48   1.364       .  A
C47          N52   1.355       .  A
C47         C426   1.487       .  S
N48          C49   1.361       .  A
C49          N50   1.362       .  A
C49          C72   1.470       .  S
N50          C51   1.356       .  A
C51          N52   1.351       .  A
C51         C381   1.479       .  S
C53          N54   1.354       .  A
C53          N58   1.358       .  A
C53         C365   1.477       .  S
N54          C55   1.354       .  A
C55          N56   1.360       .  A
C55         C349   1.485       .  S
N56          C57   1.364       .  A
C57          N58   1.357       .  A
C57          C70   1.467       .  S
O59          V67   1.918       .  S
O59          C69   1.268       .  A
O60          V67   1.913       .  S
O60          C70   1.269       .  A
O61          V67   1.885       .  S
O61          C71   1.260       .  A
O62          V67   1.887       .  S
O62          C72   1.261       .  A
O63          V68   1.919       .  S
O63          C72   1.269       .  A
O64          V68   1.915       .  S
O64          C71   1.269       .  A
O65          V68   1.890       .  S
O65          C70   1.260       .  A
O66          V68   1.887       .  S
O66          C69   1.261       .  A
V67          V68   2.082       .  T
C69          C75   1.468       .  S
C71          C83   1.465       .  S
C73          N74   1.366       .  A
C73          N78   1.354       .  A
C73         C330   1.489       .  S
N74          C75   1.364       .  A
C75          N76   1.359       .  A
N76          C77   1.352       .  A
C77          N78   1.351       .  A
C77         C314   1.475       .  S
C79          N80   1.353       .  A
C79          N84   1.361       .  A
C79         C298   1.479       .  S
N80          C81   1.352       .  A
C81          N82   1.356       .  A
C81         C282   1.478       .  S
N82          C83   1.363       .  A
C83          N84   1.359       .  A
C85         C253   1.486       .  S
C85          C90   1.398       .  A
C85        C1222   1.417   1_455  A
C86         C490   1.489       .  S
C86          C87   1.407       .  A
C86        C1221   1.419       .  A
C87          C88   1.407       .  A
C87          H92   1.084       .  S
C88         C269   1.493   1_554  S
C88        C1225   1.419       .  A
C89         C362   1.484   1_554  S
C89          C90   1.401       .  A
C89        C1224   1.419   1_455  A
C90          H91   1.085       .  S
O93         V101   1.915       .  S
O93         C103   1.269       .  A
O94         V101   1.919       .  S
O94         C104   1.269       .  A
O95         V101   1.883       .  S
O95         C105   1.259       .  A
O96         V101   1.884       .  S
O96         C106   1.259       .  A
O97         V102   1.921       .  S
O97         C106   1.270       .  A
O98         V102   1.919       .  S
O98         C105   1.270       .  A
O99         V102   1.884       .  S
O99         C104   1.260       .  A
O100        V102   1.883       .  S
O100        C103   1.258       .  A
V101        V102   2.082       .  T
C103        C109   1.463       .  S
C104        C129   1.468       .  S
C105        C121   1.467       .  S
C106        C117   1.470       .  S
C107        N108   1.360       .  A
C107        N112   1.358       .  A
C107        C397   1.483       .  S
N108        C109   1.354       .  A
C109        N110   1.360       .  A
N110        C111   1.357       .  A
C111        N112   1.357       .  A
C111        C346   1.484       .  S
C113        N118   1.364       .  A
C113       N1250   1.358       .  A
C113        C266   1.491       .  S
N114        C115   1.355   1_455  A
N114       C1249   1.359   1_455  A
C115       N1252   1.349       .  A
C115        C378   1.472   1_655  S
N116        C117   1.361       .  A
N116       C1251   1.355       .  A
C117        N118   1.360       .  A
C119        N120   1.363       .  A
C119        N124   1.356       .  A
C119        C237   1.490       .  S
N120        C121   1.357       .  A
C121        N122   1.361       .  A
N122        C123   1.355       .  A
C123        N124   1.354       .  A
C123        C317   1.476       .  S
C125        N130   1.362       .  A
C125       N1262   1.361       .  A
C125        C218   1.496       .  S
N126        C127   1.358       .  A
N126       C1261   1.363   1_455  A
C127       N1264   1.353   1_455  A
C127        C285   1.479       .  S
N128        C129   1.360       .  A
N128       C1263   1.355       .  A
C129        N130   1.360       .  A
C131        N132   1.361       .  A
C131        N136   1.356   1_455  A
C131        C250   1.484       .  S
N132        C133   1.359       .  A
C133        N134   1.361       .  A
C133        C154   1.466       .  S
N134        C135   1.358       .  A
C135        N136   1.355   1_455  A
C135       C1581   1.482   1_455  S
C137        N138   1.360       .  A
C137        N142   1.362       .  A
C137        C410   1.501       .  S
N138        C139   1.360       .  A
C139        N140   1.359       .  A
C139        C156   1.467       .  S
N140        C141   1.355       .  A
C141        N142   1.355       .  A
C141        C474   1.478       .  S
O143        V151   1.913       .  S
O143        C153   1.267       .  A
O144        V151   1.912       .  S
O144        C154   1.268       .  A
O145        V151   1.891       .  S
O145        C155   1.262       .  A
O146        V151   1.893       .  S
O146        C156   1.262       .  A
O147        V152   1.910       .  S
O147        C156   1.267       .  A
O148        V152   1.908       .  S
O148        C155   1.266       .  A
O149        V152   1.892       .  S
O149        C154   1.262       .  A
O150        V152   1.886       .  S
O150        C153   1.262       .  A
V151        V152   2.080       .  T
C153        C165   1.463       .  S
C155        C159   1.463       .  S
C157        N158   1.360       .  A
C157       N1298   1.360       .  A
C157        C202   1.486       .  S
N158        C159   1.359       .  A
C159        N160   1.357       .  A
N160        C161   1.353       .  A
C161       N1298   1.354       .  A
C161       C1645   1.469   1_455  S
N162       C1293   1.363       .  A
N162       C1297   1.354       .  A
C163        N164   1.363       .  A
C163        N168   1.359       .  A
C163        C186   1.493       .  S
N164        C165   1.362       .  A
C165        N166   1.358       .  A
N166        C167   1.352       .  A
C167        N168   1.351       .  A
C167        C541   1.480       .  S
C169        C554   1.475       .  S
C169        C174   1.398       .  A
C169       C1306   1.413       .  A
C170        C205   1.485       .  S
C170        C171   1.397       .  A
C170       C1305   1.418   1_455  A
C171        C172   1.398       .  A
C171        H176   1.084       .  S
C172        C333   1.477       .  S
C172       C1309   1.410   1_455  A
C173        C789   1.484   1_545  S
C173        C174   1.397       .  A
C173       C1308   1.416       .  A
C174        H743   1.083   1_545  S
H175        C742   1.083       .  S
C177        C525   1.478       .  S
C177        C178   1.413       .  A
C177        C182   1.404       .  A
C178        C189   1.481       .  S
C178        C179   1.395       .  A
C179        C180   1.399       .  A
C179        H184   1.086       .  S
C180        C301   1.476       .  S
C180        C181   1.418       .  A
C181        C234   1.492       .  S
C181        C182   1.405       .  A
C182        H183   1.085       .  S
C185        C186   1.408       .  A
C185        C190   1.399       .  A
C185        H192   1.086       .  S
C186        C187   1.422       .  A
C187        C188   1.410       .  A
C187        C194   1.518       .  S
C188        C189   1.404       .  A
C188        H193   1.085       .  S
C189        C190   1.415       .  A
C190        C191   1.521       .  S
C191        F195   1.384       .  S
C191        F196   1.378       .  S
C191        F197   1.383       .  S
C194        F198   1.383       .  S
C194        F199   1.383       .  S
C194        F200   1.385       .  S
C201        C206   1.404       .  A
C201       C1338   1.413       .  A
C201        H208   1.082       .  S
C202        C203   1.421       .  A
C202       C1337   1.406       .  A
C203        C204   1.408       .  A
C203        C210   1.519       .  S
C204        C205   1.403       .  A
C204        H209   1.082       .  S
C205       C1342   1.417       .  A
C206       C1341   1.412       .  A
C206        C207   1.520       .  S
C207        F211   1.385       .  S
C207        F212   1.381       .  S
C207        F213   1.380       .  S
C210        F214   1.382       .  S
C210        F215   1.384       .  S
C210        F216   1.385       .  S
C217        C222   1.403       .  A
C217       C1354   1.411   1_455  A
C217        H224   1.084       .  S
C218        C219   1.424       .  A
C218       C1353   1.408       .  A
C219        C220   1.411       .  A
C219        C226   1.519       .  S
C220        C221   1.403       .  A
C220        H225   1.083       .  S
C221        C741   1.477       .  S
C221       C1358   1.413       .  A
C222       C1357   1.414   1_455  A
C222        C791   1.521       .  S
C223        C790   1.521       .  S
C223        F227   1.384       .  S
C223        F228   1.383       .  S
C223        F797   1.381       .  S
C226        F230   1.384       .  S
C226        F231   1.382       .  S
C226        F232   1.385       .  S
F229        C791   1.381       .  S
C233        C234   1.404       .  A
C233        C238   1.405       .  A
C233        H240   1.082       .  S
C234        C235   1.421       .  A
C235        C236   1.402       .  A
C235        C242   1.517       .  S
C236        C237   1.405       .  A
C236        H241   1.085       .  S
C237        C238   1.423       .  A
C238        C239   1.521       .  S
C239        F243   1.385       .  S
C239        F244   1.382       .  S
C239        F245   1.384       .  S
C242        F246   1.374       .  S
C242        F247   1.384       .  S
C242        F248   1.383       .  S
C249        C250   1.404       .  A
C249        C254   1.405       .  A
C249        H256   1.084       .  S
C250        C251   1.423       .  A
C251        C252   1.404       .  A
C251       C1394   1.521   1_455  S
C252        C253   1.402       .  A
C252       H1393   1.083   1_455  S
C253        C254   1.418       .  A
C254        C255   1.516       .  S
C255        F259   1.383       .  S
C255        F260   1.379       .  S
C255        F261   1.384       .  S
H257       C1388   1.083       .  S
C258       C1387   1.522       .  S
C258        F262   1.381       .  S
C258        F264   1.385       .  S
C258       F1399   1.383       .  S
F263       C1394   1.383   1_455  S
C265        C266   1.407       .  A
C265        C270   1.408       .  A
C265        H272   1.084       .  S
C266       C1403   1.422       .  A
C267        C268   1.405       .  A
C267       C1402   1.424   1_455  A
C267        C274   1.522       .  S
C268       C1405   1.403   1_455  A
C268        H273   1.082       .  S
C269        C270   1.422       .  A
C269       C1404   1.403       .  A
C270        C271   1.521       .  S
C271        F275   1.384       .  S
C271        F276   1.383       .  S
C271        F277   1.381       .  S
C274        F278   1.383       .  S
C274        F279   1.383       .  S
C274        F280   1.386       .  S
C281        C282   1.403       .  A
C281        C286   1.403       .  A
C281        H288   1.082       .  S
C282        C283   1.415       .  A
C283        C284   1.411       .  A
C283        C290   1.518       .  S
C284        C285   1.407       .  A
C284        H289   1.083       .  S
C285        C286   1.415       .  A
C286       C1423   1.519       .  S
C287       C1422   1.518       .  S
C287        F291   1.385       .  S
C287        F292   1.377       .  S
C287        F293   1.383       .  S
C290        F294   1.383       .  S
C290        F295   1.383       .  S
C290        F296   1.385       .  S
C297        C298   1.405       .  A
C297        C302   1.404       .  A
C297        H304   1.084       .  S
C298        C299   1.423       .  A
C299        C300   1.399       .  A
C299        C306   1.522       .  S
C300        C301   1.399       .  A
C300        H305   1.084       .  S
C301        C302   1.415       .  A
C302        C303   1.516       .  S
C303        F307   1.382       .  S
C303        F308   1.381       .  S
C303        F309   1.384       .  S
C306        F310   1.383       .  S
C306        F311   1.384       .  S
C306        F312   1.385       .  S
C313        C314   1.401   1_565  A
C313        C886   1.401       .  A
C313        H320   1.082   1_565  S
C314        C883   1.416   1_545  A
C315        C316   1.411       .  A
C315        C882   1.417       .  A
C315        C322   1.519       .  S
C316        C317   1.404       .  A
C316        H321   1.083       .  S
C317        C318   1.414       .  A
C318        C881   1.404       .  A
C318        C319   1.518       .  S
C319        F324   1.382       .  S
C319        F325   1.384       .  S
C319        F891   1.384       .  S
C322        F326   1.383       .  S
C322        F327   1.383       .  S
C322        F328   1.385       .  S
F323        C887   1.385       .  S
C329        C330   1.406       .  A
C329        C334   1.407       .  A
C329        H336   1.084       .  S
C330        C331   1.428       .  A
C331        C332   1.400       .  A
C331        C338   1.522       .  S
C332        C333   1.395       .  A
C332        H337   1.083       .  S
C333        C334   1.418       .  A
C334        C903   1.518   1_455  S
C335        C902   1.518   1_655  S
C335        F339   1.384       .  S
C335        F340   1.383       .  S
C335       F1477   1.381       .  S
C338        F342   1.383   1_545  S
C338        F343   1.383       .  S
C338        F344   1.385       .  S
F341       C1471   1.381       .  S
C345        C346   1.405       .  A
C345        C350   1.411       .  A
C345        H352   1.083       .  S
C346        C347   1.418       .  A
C347        C348   1.407       .  A
C347        C354   1.520       .  S
C348        C349   1.405       .  A
C348        H353   1.083       .  S
C349        C350   1.418       .  A
C350        C351   1.518       .  S
C351        F355   1.385       .  S
C351        F356   1.382       .  S
C351        F357   1.383       .  S
C354        F358   1.383       .  S
C354        F359   1.380       .  S
C354        F360   1.385       .  S
C361        C362   1.402       .  A
C361        C366   1.401       .  A
C361        H368   1.083   1_556  S
C362        C363   1.418       .  A
C363        C364   1.404       .  A
C363        C370   1.516   1_455  S
C364        C365   1.403       .  A
C364        H369   1.085       .  S
C365        C366   1.420       .  A
C366        C367   1.522       .  S
C367        F371   1.385       .  S
C367        F372   1.383       .  S
C367        F373   1.384       .  S
C370       F1510   1.383       .  S
C370       F1511   1.380       .  S
C370       F1512   1.384       .  S
F374       C1506   1.378       .  S
F375       C1506   1.384       .  S
F376       C1506   1.385       .  S
C377        C378   1.401       .  A
C377        C950   1.405       .  A
C377       H1520   1.084       .  S
C378        C379   1.417       .  A
C379        C380   1.407       .  A
C379        C386   1.519       .  S
C380        C949   1.401       .  A
C380        H385   1.084       .  S
C381        C382   1.417       .  A
C381        C948   1.403   1_545  A
C382        C945   1.407   1_545  A
C382        C383   1.520       .  S
C383        F387   1.385       .  S
C383        F388   1.383       .  S
C383        F389   1.381       .  S
H384       C1513   1.083       .  S
C386        F390   1.383       .  S
C386        F391   1.383       .  S
C386        F392   1.385       .  S
C393        C394   1.400       .  A
C393        C398   1.403       .  A
C393        H400   1.084   1_556  S
C394        C610   1.476   1_556  S
C394        C395   1.413       .  A
C395        C396   1.401       .  A
C395        C970   1.517       .  S
C396        C397   1.407       .  A
C396        H401   1.084       .  S
C397        C398   1.423       .  A
C398        C399   1.521       .  S
C399        F403   1.385   1_556  S
C399        F404   1.383       .  S
C399        F405   1.381       .  S
C402        C963   1.516   1_545  S
C402        F406   1.384       .  S
C402        F407   1.380       .  S
C402        F408   1.383       .  S
C409        C410   1.409       .  A
C409        C414   1.399       .  A
C409        H416   1.083       .  S
C410        C411   1.428       .  A
C411        C412   1.411       .  A
C411        C418   1.520       .  S
C412        C413   1.401       .  A
C412        H417   1.083       .  S
C413        C414   1.413       .  A
C414        C415   1.520       .  S
C415        F419   1.384       .  S
C415        F420   1.378       .  S
C415        F421   1.383       .  S
C418        F422   1.383       .  S
C418        F423   1.383       .  S
C418        F424   1.385       .  S
C425        C426   1.405       .  A
C425        C430   1.409       .  A
C425        H432   1.082       .  S
C426        C427   1.421       .  A
C427        C428   1.400       .  A
C427        C434   1.521   1_545  S
C428        C429   1.401       .  A
C428        H433   1.081   1_545  S
C429        C430   1.424       .  A
C430        C431   1.523       .  S
C431        F435   1.380   1_556  S
C431        F436   1.385       .  S
C431        F437   1.379       .  S
C434        F438   1.384       .  S
C434        F439   1.381       .  S
C434        F440   1.384       .  S
C441        C442   1.404       .  A
C441        C446   1.404       .  A
C441        H448   1.083       .  S
C442        C443   1.418       .  A
C443        C444   1.410       .  A
C443        C450   1.519       .  S
C444        C445   1.406       .  A
C444       H1585   1.083       .  S
C445       C1271   1.481       .  S
C445        C446   1.417       .  A
C446        C447   1.519       .  S
C447        F451   1.385       .  S
C447        F452   1.380       .  S
C447        F453   1.383       .  S
H449       C1580   1.083   1_455  S
C450        F455   1.383   1_545  S
C450        F456   1.385       .  S
C450       F1022   1.383   1_545  S
F454       C1018   1.384       .  S
C457        C458   1.405       .  A
C457        C462   1.406   1_545  A
C457        H464   1.082   1_545  S
C458        C459   1.417       .  A
C459        C460   1.398       .  A
C459        C466   1.521       .  S
C460        C461   1.405       .  A
C460        H465   1.085       .  S
C461        C462   1.417   1_545  A
C462        C463   1.518       .  S
C463        F467   1.385       .  S
C463        F468   1.384   1_565  S
C463       F1037   1.383       .  S
C466        F470   1.377       .  S
C466        F471   1.383       .  S
C466        F472   1.384       .  S
F469       C1031   1.382       .  S
C473        C474   1.404       .  A
C473        C478   1.411       .  A
C473        H480   1.083       .  S
C474        C475   1.416       .  A
C475        C476   1.405       .  A
C475        C482   1.518       .  S
C476        C477   1.401       .  A
C476        H481   1.084       .  S
C477        C478   1.416       .  A
C478        C479   1.518       .  S
C479        F483   1.384       .  S
C479        F484   1.383       .  S
C479        F485   1.384       .  S
C482        F486   1.383       .  S
C482        F487   1.381       .  S
C482        F488   1.384       .  S
C489        C490   1.400       .  A
C489        C494   1.400       .  A
C489        H496   1.082       .  S
C490        C491   1.422       .  A
C491        C492   1.408       .  A
C491       C1634   1.521       .  S
C492        C493   1.407       .  A
C492        H497   1.084       .  S
C493        C494   1.425       .  A
C494        C495   1.523       .  S
C495        F499   1.385       .  S
C495        F500   1.383       .  S
C495        F501   1.384       .  S
C498       C1627   1.521       .  S
C498        F502   1.379   1_655  S
C498        F503   1.383       .  S
C498        F504   1.383       .  S
C505        C506   1.401       .  A
C505        C510   1.406       .  A
C505        H512   1.083       .  S
C506        C507   1.414       .  A
C507        C508   1.407       .  A
C507        C514   1.517       .  S
C508        C509   1.401       .  A
C508       H1649   1.083       .  S
C509       C1297   1.470       .  S
C509        C510   1.413       .  A
C510        C511   1.517       .  S
C511        F515   1.384       .  S
C511        F516   1.383       .  S
C511        F517   1.383       .  S
H513       C1644   1.083   1_455  S
C514        F518   1.383       .  S
C514        F519   1.383       .  S
C514       F1656   1.384       .  S
F520       C1650   1.385       .  S
C521        C522   1.405       .  A
C521        C526   1.396       .  A
C521        H528   1.087       .  S
C522        C523   1.419       .  A
C523        C524   1.408       .  A
C523        C530   1.518       .  S
C524        C525   1.404       .  A
C524        H529   1.084       .  S
C525        C526   1.415       .  A
C526        C527   1.519       .  S
C527        F531   1.384       .  S
C527        F532   1.375       .  S
C527        F533   1.383       .  S
C530        F534   1.383       .  S
C530        F535   1.383       .  S
C530        F536   1.385       .  S
C537        C538   1.405       .  A
C537        C542   1.405       .  A
C537        H544   1.083       .  S
C538        C539   1.419       .  A
C539        C540   1.408       .  A
C539        C546   1.518       .  S
C540        C541   1.404       .  A
C540        H545   1.083       .  S
C541        C542   1.416       .  A
C542        C543   1.520       .  S
C543        F547   1.383       .  S
C543        F548   1.382       .  S
C543        F549   1.384       .  S
C546        F552   1.385       .  S
C546       F1118   1.383   1_545  S
C546       F1119   1.383       .  S
F550       C1114   1.383       .  S
F551       C1114   1.382       .  S
C553        C554   1.396       .  A
C553        C558   1.402       .  A
C553       H1128   1.081       .  S
C554        C555   1.416   1_545  A
C555        C556   1.404       .  A
C555        C562   1.519       .  S
C556        C557   1.406   1_565  A
C556        H561   1.084       .  S
C557        C558   1.427       .  A
C558       C1127   1.524       .  S
C559       C1126   1.524       .  S
C559        F563   1.386       .  S
C559        F564   1.383       .  S
C559       F1133   1.383       .  S
H560       C1121   1.079       .  S
C562        F568   1.383       .  S
C562       F1702   1.381       .  S
C562       F1703   1.383       .  S
F565       C1127   1.383       .  S
F566       C1698   1.383   1_455  S
F567       C1698   1.385       .  S
C569        N570   1.355       .  A
C569       C1125   1.502       .  S
N570        C571   1.354       .  A
C571        N572   1.355       .  A
C571       C1106   1.485       .  S
C573        N574   1.359       .  A
C573        C586   1.465       .  S
O575        V583   1.919       .  S
O575        C585   1.269       .  A
O576        V583   1.916       .  S
O576        C586   1.269       .  A
O577        V583   1.884       .  S
O577        C587   1.260       .  A
O578        V583   1.882       .  S
O578        C588   1.259       .  A
O579        V584   1.917       .  S
O579        C588   1.269       .  A
O580        V584   1.922       .  S
O580        C587   1.270       .  A
O581        V584   1.885       .  S
O581        C586   1.259       .  A
O582        V584   1.885       .  S
O582        C585   1.260       .  A
V583        V584   2.082       .  T
C585        C599   1.469       .  S
C587        C591   1.471       .  S
C588        C605   1.464       .  S
C589        N590   1.364       .  A
C589        N594   1.357       .  A
C589       C1090   1.500       .  S
N590        C591   1.363       .  A
C591        N592   1.361       .  A
N592        C593   1.354       .  A
C593        N594   1.348       .  A
C593       C1074   1.478       .  S
C595        N596   1.358       .  A
C595        N600   1.365       .  A
C595       C1061   1.494       .  S
N596        C597   1.356       .  A
C597        N598   1.354       .  A
C597       C1045   1.491       .  S
N598        C599   1.359       .  A
C599        N600   1.361       .  A
C601        N602   1.356       .  A
C601       C1029   1.481       .  S
N602        C603   1.349       .  A
C603        N604   1.354       .  A
C603       C1010   1.474       .  S
C605        N606   1.359       .  A
C607        C981   1.473       .  S
C607        C608   1.411       .  A
C607        C612   1.398       .  A
C608       C1026   1.479       .  S
C608        C609   1.397       .  A
C609        C610   1.398       .  A
C610        C611   1.418       .  A
C611        C997   1.486   1_554  S
C611        C612   1.400       .  A
C612        H613   1.083       .  S
C615        N616   1.365       .  A
C615        N620   1.353       .  A
C615        C994   1.488       .  S
N616        C617   1.360       .  A
C617        N618   1.360       .  A
C617        C640   1.466       .  S
N618        C619   1.353       .  A
C619        N620   1.350       .  A
C619        C949   1.469       .  S
C621        N622   1.355       .  A
C621        N626   1.361       .  A
C621        C933   1.479       .  S
N622        C623   1.353       .  A
C623        N624   1.358       .  A
C623        C917   1.478       .  S
N624        C625   1.362       .  A
C625        N626   1.357       .  A
C625        C638   1.467       .  S
O627        V635   1.921       .  S
O627        C637   1.269       .  A
O628        V635   1.917       .  S
O628        C638   1.270       .  A
O629        V635   1.880       .  S
O629        C639   1.258       .  A
O630        V635   1.880       .  S
O630        C640   1.259       .  A
O631        V636   1.920       .  S
O631        C640   1.270       .  A
O632        V636   1.914       .  S
O632        C639   1.269       .  A
O633        V636   1.886       .  S
O633        C638   1.259       .  A
O634        V636   1.882       .  S
O634        C637   1.260       .  A
V635        V636   2.082       .  T
C637        C643   1.467       .  S
C639        C651   1.461       .  S
C641        N642   1.365       .  A
C641        N646   1.357       .  A
C641        C898   1.485       .  S
N642        C643   1.362       .  A
C643        N644   1.360       .  A
N644        C645   1.353       .  A
C645        N646   1.353       .  A
C645        C882   1.477       .  S
C647        N648   1.353       .  A
C647        N652   1.359       .  A
C647        C866   1.473       .  S
N648        C649   1.351       .  A
C649        N650   1.356       .  A
C649        C850   1.469       .  S
N650        C651   1.362       .  A
C651        N652   1.355       .  A
C653        C821   1.486       .  S
C653       C1790   1.418   1_455  A
C653        C658   1.396       .  A
C654       C1058   1.490       .  S
C654       C1789   1.420       .  A
C654        C655   1.408       .  A
C655        C656   1.408       .  A
C655        H660   1.084       .  S
C656        C837   1.492   1_554  S
C656       C1793   1.417       .  A
C657        C930   1.478   1_554  S
C657       C1792   1.417   1_455  A
C657        C658   1.396       .  A
C658        H659   1.085       .  S
O661        V669   1.906       .  S
O661        C671   1.266       .  A
O662        V669   1.907       .  S
O662        C672   1.266       .  A
O663        V669   1.884       .  S
O663        C673   1.261       .  A
O664        V669   1.886       .  S
O664        C674   1.261       .  A
O665        V670   1.918       .  S
O665        C674   1.268       .  A
O666        V670   1.915       .  S
O666        C673   1.268       .  A
O667        V670   1.890       .  S
O667        C672   1.262       .  A
O668        V670   1.891       .  S
O668        C671   1.261       .  A
V669        V670   2.082       .  T
C671        C677   1.462       .  S
C672        C697   1.463       .  S
C673        C689   1.466       .  S
C674        C685   1.468       .  S
C675        N676   1.359       .  A
C675        N680   1.358       .  A
C675        C965   1.482       .  S
N676        C677   1.355       .  A
C677        N678   1.360       .  A
N678        C679   1.357       .  A
C679        N680   1.356       .  A
C679        C914   1.479       .  S
C681       N1818   1.357       .  A
C681        N686   1.365       .  A
C681        C834   1.494       .  S
N682       C1817   1.356   1_455  A
N682        C683   1.353   1_455  A
C683       N1820   1.355       .  A
C683        C946   1.480   1_655  S
N684       C1819   1.353       .  A
N684        C685   1.359       .  A
C685        N686   1.361       .  A
C687        N688   1.365       .  A
C687        N692   1.355       .  A
C687        C805   1.488       .  S
N688        C689   1.362       .  A
C689        N690   1.359       .  A
N690        C691   1.353       .  A
C691        N692   1.352       .  A
C691        C885   1.473       .  S
C693       N1830   1.360       .  A
C693        N698   1.360       .  A
C693        C786   1.486       .  S
N694       C1829   1.363       .  A
N694        C695   1.354       .  A
C695       N1832   1.350       .  A
C695        C853   1.469   1_655  S
N696       C1831   1.353       .  A
N696        C697   1.358       .  A
C697        N698   1.359       .  A
C699        N700   1.361       .  A
C699        N704   1.358   1_455  A
C699        C818   1.485       .  S
N700        C701   1.357       .  A
C701        N702   1.362       .  A
C701        C722   1.469       .  S
N702        C703   1.359   1_455  A
C703        N704   1.356       .  A
C703       C2149   1.485       .  S
C705        N706   1.357       .  A
C705        N710   1.359       .  A
C705        C978   1.496       .  S
N706        C707   1.357       .  A
C707        N708   1.361       .  A
C707        C724   1.462       .  S
N708        C709   1.357       .  A
C709        N710   1.352       .  A
C709       C1042   1.482       .  S
O711        V719   1.921       .  S
O711        C721   1.269       .  A
O712        V719   1.917       .  S
O712        C722   1.270       .  A
O713        V719   1.885       .  S
O713        C723   1.260       .  A
O714        V719   1.887       .  S
O714        C724   1.260       .  A
O715        V720   1.908       .  S
O715        C724   1.267       .  A
O716        V720   1.908       .  S
O716        C723   1.267       .  A
O717        V720   1.890       .  S
O717        C722   1.260       .  A
O718        V720   1.888       .  S
O718        C721   1.261       .  A
V719        V720   2.081       .  T
C721        C733   1.472       .  S
C723        C727   1.459       .  S
C725        N726   1.357       .  A
C725       N1866   1.358   1_455  A
C725        C770   1.479       .  S
N726        C727   1.356       .  A
C727        N728   1.360       .  A
N728        C729   1.358   1_455  A
C729       N1866   1.354       .  A
C729       C2213   1.497       .  S
N730       C1861   1.360       .  A
N730       C1865   1.354       .  A
C731        N732   1.364       .  A
C731        N736   1.356       .  A
C731        C754   1.480       .  S
N732        C733   1.364       .  A
C733        N734   1.362       .  A
N734        C735   1.356       .  A
C735        N736   1.351       .  A
C735       C1109   1.482       .  S
C737       C1122   1.492       .  S
C737       C1874   1.420       .  A
C737        C742   1.406       .  A
C738        C773   1.483       .  S
C738       C1873   1.418   1_455  A
C738        C739   1.398       .  A
C739        C740   1.399       .  A
C739        H744   1.083       .  S
C740        C901   1.482       .  S
C740       C1877   1.415   1_455  A
C741       C1876   1.407       .  A
C741        C742   1.404       .  A
C745       C1093   1.477       .  S
C745        C746   1.414       .  A
C745        C750   1.403       .  A
C746        C757   1.487       .  S
C746        C747   1.396       .  A
C747        C748   1.399       .  A
C747        H752   1.085       .  S
C748        C869   1.478       .  S
C748        C749   1.421       .  A
C749        C802   1.497       .  S
C749        C750   1.406       .  A
C750        H751   1.084       .  S
C753        C754   1.402       .  A
C753        C758   1.399       .  A
C753        H760   1.086       .  S
C754        C755   1.415       .  A
C755        C756   1.410       .  A
C755        C762   1.516       .  S
C756        C757   1.408       .  A
C756        H761   1.083       .  S
C757        C758   1.422       .  A
C758        C759   1.523       .  S
C759        F763   1.383       .  S
C759        F764   1.378       .  S
C759        F765   1.384       .  S
C762        F766   1.382       .  S
C762        F767   1.383       .  S
C762        F768   1.385       .  S
C769       C1906   1.410       .  A
C769        C774   1.403       .  A
C769        H776   1.082       .  S
C770       C1905   1.404       .  A
C770        C771   1.419       .  A
C771        C772   1.407       .  A
C771        C778   1.519       .  S
C772        C773   1.404       .  A
C772        H777   1.083       .  S
C773       C1910   1.417       .  A
C774       C1909   1.415       .  A
C774        C775   1.525       .  S
C775        F779   1.385       .  S
C775        F780   1.381       .  S
C775        F781   1.382       .  S
C778        F782   1.382       .  S
C778        F783   1.384       .  S
C778        F784   1.385       .  S
C785       C1922   1.412   1_455  A
C785        C790   1.400       .  A
C785        H792   1.083       .  S
C786       C1921   1.406       .  A
C786        C787   1.420       .  A
C787        C788   1.408       .  A
C787        C794   1.519       .  S
C788        C789   1.404       .  A
C788        H793   1.082   1_565  S
C789       C1926   1.416       .  A
C790       C1925   1.413   1_455  A
C791        F795   1.384       .  S
C791        F796   1.383       .  S
C794        F798   1.384       .  S
C794        F799   1.382       .  S
C794        F800   1.385   1_565  S
C801        C802   1.404       .  A
C801        C806   1.404       .  A
C801        H808   1.082       .  S
C802        C803   1.424       .  A
C803        C804   1.406       .  A
C803        C810   1.519       .  S
C804        C805   1.404       .  A
C804        H809   1.084       .  S
C805        C806   1.422       .  A
C806        C807   1.521       .  S
C807        F811   1.385       .  S
C807        F812   1.382       .  S
C807        F813   1.384       .  S
C810        F814   1.379       .  S
C810        F815   1.385       .  S
C810        F816   1.382       .  S
C817        C818   1.405       .  A
C817        C822   1.404       .  A
C817        H824   1.084       .  S
C818        C819   1.422       .  A
C819        C820   1.404       .  A
C819       C1962   1.521   1_455  S
C820        C821   1.402       .  A
C820       H1961   1.083   1_455  S
C821        C822   1.417       .  A
C822        C823   1.516       .  S
C823        F827   1.383       .  S
C823        F828   1.380       .  S
C823        F829   1.384       .  S
H825       C1956   1.084       .  S
C826       C1955   1.521       .  S
C826        F830   1.382       .  S
C826       F1967   1.384       .  S
C826        F832   1.385       .  S
F831       C1962   1.383   1_455  S
C833        C834   1.407       .  A
C833        C838   1.408       .  A
C833        H840   1.084       .  S
C834       C1971   1.424       .  A
C835       C1970   1.425   1_455  A
C835        C836   1.403       .  A
C835        C842   1.523       .  S
C836       C1973   1.403   1_455  A
C836        H841   1.081       .  S
C837       C1972   1.403       .  A
C837        C838   1.420       .  A
C838        C839   1.520       .  S
C839        F843   1.384       .  S
C839        F844   1.383       .  S
C839        F845   1.380   1_556  S
C842        F846   1.383       .  S
C842        F847   1.384       .  S
C842        F848   1.385       .  S
C849        C850   1.402       .  A
C849        C854   1.407       .  A
C849        H856   1.083       .  S
C850        C851   1.413       .  A
C851        C852   1.405       .  A
C851        C858   1.517       .  S
C852        C853   1.401       .  A
C852        H857   1.084       .  S
C853        C854   1.414       .  A
C854       C1991   1.517   1_455  S
C855       C1990   1.518       .  S
C855        F859   1.384       .  S
C855        F860   1.380       .  S
C855        F861   1.384       .  S
C858        F862   1.383       .  S
C858        F863   1.383       .  S
C858        F864   1.385       .  S
C865        C866   1.403       .  A
C865        C870   1.399       .  A
C865        H872   1.085       .  S
C866        C867   1.420       .  A
C867        C868   1.400       .  A
C867        C874   1.522       .  S
C868        C869   1.402       .  A
C868        H873   1.084       .  S
C869        C870   1.415       .  A
C870        C871   1.515       .  S
C871        F875   1.382       .  S
C871        F876   1.380       .  S
C871        F877   1.384       .  S
C874        F878   1.382       .  S
C874        F879   1.384       .  S
C874        F880   1.385       .  S
C881        C882   1.402       .  A
C881        H888   1.083       .  S
C883        C884   1.410       .  A
C883        C890   1.518       .  S
C884        C885   1.405       .  A
C884        H889   1.084       .  S
C885        C886   1.414       .  A
C886        C887   1.520       .  S
C887        F892   1.382       .  S
C887        F893   1.384       .  S
C890        F894   1.383       .  S
C890        F895   1.383   1_565  S
C890        F896   1.384       .  S
C897        C898   1.405       .  A
C897        C902   1.407       .  A
C897        H904   1.085       .  S
C898        C899   1.423       .  A
C899        C900   1.402       .  A
C899        C906   1.521       .  S
C900        C901   1.399       .  A
C900        H905   1.084       .  S
C901        C902   1.418       .  A
C903        F907   1.383       .  S
C903        F908   1.383       .  S
C903       F2045   1.381       .  S
C906        F910   1.382       .  S
C906        F911   1.384       .  S
C906        F912   1.385       .  S
F909       C2039   1.381       .  S
C913        C914   1.402       .  A
C913        C918   1.407       .  A
C913        H920   1.083       .  S
C914        C915   1.417       .  A
C915        C916   1.409       .  A
C915        C922   1.518       .  S
C916        C917   1.404       .  A
C916        H921   1.083       .  S
C917        C918   1.416       .  A
C918        C919   1.517       .  S
C919        F923   1.385       .  S
C919        F924   1.382       .  S
C919        F925   1.383       .  S
C922        F926   1.383       .  S
C922        F927   1.381       .  S
C922        F928   1.385       .  S
C929        C930   1.400       .  A
C929        C934   1.401       .  A
C929        H936   1.084   1_556  S
C930        C931   1.415       .  A
C931        C932   1.403       .  A
C931        C938   1.517   1_455  S
C932        C933   1.405       .  A
C932        H937   1.085       .  S
C933        C934   1.423       .  A
C934        C935   1.522       .  S
C935        F939   1.385   1_556  S
C935        F940   1.383       .  S
C935        F941   1.383       .  S
C938       F2078   1.382       .  S
C938       F2079   1.381       .  S
C938       F2080   1.384   1_655  S
F942       C2074   1.383       .  S
F943       C2074   1.380       .  S
F944       C2074   1.384       .  S
C945        C946   1.403       .  A
C945       H2088   1.083       .  S
C946        C947   1.417       .  A
C947        C948   1.410       .  A
C947        C954   1.518       .  S
C948        H953   1.083       .  S
C949        C950   1.413       .  A
C950        C951   1.517       .  S
C951        F955   1.384       .  S
C951        F956   1.384       .  S
C951        F957   1.382       .  S
H952       C2081   1.084       .  S
C954        F958   1.382       .  S
C954        F959   1.384       .  S
C954        F960   1.385       .  S
C961        C962   1.402       .  A
C961        C966   1.405       .  A
C961        H968   1.083   1_556  S
C962        C963   1.415       .  A
C963        C964   1.403       .  A
C964        C965   1.405       .  A
C964        H969   1.085       .  S
C965        C966   1.421       .  A
C966        C967   1.522       .  S
C967        F971   1.384   1_556  S
C967        F972   1.384       .  S
C967        F973   1.383       .  S
C970        F974   1.384       .  S
C970        F975   1.381       .  S
C970        F976   1.382       .  S
C977        C978   1.409       .  A
C977        C982   1.393       .  A
C977        H984   1.082       .  S
C978        C979   1.428       .  A
C979        C980   1.410       .  A
C979        C986   1.521       .  S
C980        C981   1.401       .  A
C980        H985   1.083       .  S
C981        C982   1.410       .  A
C982        C983   1.518       .  S
C983        F987   1.384       .  S
C983        F988   1.376       .  S
C983        F989   1.382       .  S
C986        F990   1.383       .  S
C986        F991   1.383       .  S
C986        F992   1.385       .  S
C993        C994   1.405       .  A
C993        C998   1.403       .  A
C993       H1000   1.083       .  S
C994        C995   1.426       .  A
C995        C996   1.403       .  A
C995       C1002   1.523       .  S
C996        C997   1.400       .  A
C996       H1001   1.081       .  S
C997        C998   1.418       .  A
C998        C999   1.519       .  S
C999       F1003   1.382       .  S
C999       F1004   1.385       .  S
C999       F1005   1.378       .  S
C1002      F1006   1.384       .  S
C1002      F1007   1.383       .  S
C1002      F1008   1.385       .  S
C1009      C1010   1.402       .  A
C1009      C1014   1.404       .  A
C1009      H1016   1.083       .  S
C1010      C1011   1.416       .  A
C1011      C1012   1.409       .  A
C1011      C1018   1.519       .  S
C1012      C1013   1.404       .  A
C1012      H2153   1.083       .  S
C1013      C1839   1.476       .  S
C1013      C1014   1.416       .  A
C1014      C1015   1.519       .  S
C1015      F1019   1.385       .  S
C1015      F1020   1.382       .  S
C1015      F1021   1.383       .  S
H1017      C2148   1.083   1_455  S
C1018      F1023   1.383       .  S
C1018      F1024   1.384       .  S
C1025      C1026   1.405       .  A
C1025      C1030   1.407       .  A
C1025      H1032   1.083       .  S
C1026      C1027   1.417       .  A
C1027      C1028   1.397       .  A
C1027      C1034   1.521       .  S
C1028      C1029   1.405       .  A
C1028      H1033   1.085       .  S
C1029      C1030   1.416       .  A
C1030      C1031   1.517       .  S
C1031      F1035   1.385       .  S
C1031      F1036   1.383       .  S
C1034      F1038   1.377       .  S
C1034      F1039   1.383       .  S
C1034      F1040   1.384       .  S
C1041      C1042   1.403       .  A
C1041      C1046   1.411       .  A
C1041      H1048   1.083       .  S
C1042      C1043   1.420       .  A
C1043      C1044   1.404       .  A
C1043      C1050   1.521       .  S
C1044      C1045   1.404       .  A
C1044      H1049   1.085       .  S
C1045      C1046   1.423       .  A
C1046      C1047   1.520       .  S
C1047      F1051   1.385       .  S
C1047      F1052   1.383       .  S
C1047      F1053   1.383       .  S
C1050      F1054   1.382       .  S
C1050      F1055   1.383       .  S
C1050      F1056   1.384       .  S
C1057      C1058   1.401       .  A
C1057      C1062   1.401       .  A
C1057      H1064   1.082       .  S
C1058      C1059   1.421       .  A
C1059      C1060   1.409       .  A
C1059      C2202   1.521       .  S
C1060      C1061   1.409       .  A
C1060      H1065   1.084       .  S
C1061      C1062   1.424       .  A
C1062      C1063   1.522       .  S
C1063      F1067   1.385       .  S
C1063      F1068   1.383       .  S
C1063      F1069   1.384       .  S
C1066      C2195   1.521       .  S
C1066      F1070   1.379   1_655  S
C1066      F1071   1.384       .  S
C1066      F1072   1.383       .  S
C1073      C1074   1.403       .  A
C1073      C1078   1.408       .  A
C1073      H1080   1.083       .  S
C1074      C1075   1.418       .  A
C1075      C1076   1.405       .  A
C1075      C1082   1.520       .  S
C1076      C1077   1.403       .  A
C1076      H2217   1.084       .  S
C1077      C1865   1.479       .  S
C1077      C1078   1.418       .  A
C1078      C1079   1.519       .  S
C1079      F1083   1.385       .  S
C1079      F1084   1.384       .  S
C1079      F1085   1.382       .  S
H1081      C2212   1.081   1_455  S
C1082      F1086   1.382       .  S
C1082      F1087   1.384       .  S
C1082      F2224   1.385       .  S
F1088      C2218   1.385       .  S
C1089      C1090   1.413       .  A
C1089      C1094   1.396       .  A
C1089      H1096   1.082       .  S
C1090      C1091   1.426       .  A
C1091      C1092   1.411       .  A
C1091      C1098   1.519       .  S
C1092      C1093   1.402       .  A
C1092      H1097   1.083       .  S
C1093      C1094   1.410       .  A
C1094      C1095   1.520       .  S
C1095      F1099   1.383       .  S
C1095      F1100   1.378       .  S
C1095      F1101   1.384       .  S
C1098      F1102   1.383       .  S
C1098      F1103   1.383       .  S
C1098      F1104   1.385       .  S
C1105      C1106   1.404       .  A
C1105      C1110   1.405       .  A
C1105      H1112   1.082       .  S
C1106      C1107   1.419       .  A
C1107      C1108   1.412       .  A
C1107      C1114   1.518       .  S
C1108      C1109   1.405       .  A
C1108      H1113   1.083       .  S
C1109      C1110   1.417       .  A
C1110      C1111   1.520       .  S
C1111      F1115   1.385       .  S
C1111      F1116   1.382       .  S
C1111      F1117   1.384       .  S
C1114      F1120   1.385       .  S
C1121      C1122   1.398       .  A
C1121      C1126   1.404       .  A
C1122      C1123   1.417       .  A
C1123      C1124   1.410       .  A
C1123      C1130   1.520       .  S
C1124      C1125   1.410       .  A
C1124      H1129   1.082       .  S
C1125      C1126   1.430       .  A
C1127      F1131   1.385       .  S
C1127      F1132   1.384       .  S
C1130      F2270   1.382       .  S
C1130      F2271   1.385       .  S
C1130      F1136   1.381       .  S
F1134      C2266   1.383   1_455  S
F1135      C2266   1.385       .  S
C1137      N1138   1.358       .  A
C1137      N1710   1.361   1_545  A
C1137      C1693   1.482       .  S
N1138      C1139   1.352       .  A
C1139      N1140   1.353   1_545  A
C1139      C1674   1.476       .  S
N1140      C1709   1.359       .  A
C1141      N1708   1.362       .  A
C1141      N1142   1.362       .  A
C1141      C1154   1.466       .  S
N1142      C1705   1.364       .  A
O1143      V1151   1.921       .  S
O1143      C1153   1.269       .  A
O1144      V1151   1.918       .  S
O1144      C1154   1.269       .  A
O1145      V1151   1.889       .  S
O1145      C1155   1.261       .  A
O1146      V1151   1.890       .  S
O1146      C1156   1.260       .  A
O1147      V1152   1.914       .  S
O1147      C1156   1.269       .  A
O1148      V1152   1.917       .  S
O1148      C1155   1.268       .  A
O1149      V1152   1.880       .  S
O1149      C1154   1.259       .  A
O1150      V1152   1.882       .  S
O1150      C1153   1.260       .  A
V1151      V1152   2.083       .  T
C1153      C1167   1.468       .  S
C1155      C1159   1.469       .  S
C1156      C1173   1.467       .  S
C1157      N1158   1.363       .  A
C1157      N1162   1.357       .  A
C1157      C1658   1.491       .  S
N1158      C1159   1.364       .  A
C1159      N1160   1.361       .  A
N1160      C1161   1.354       .  A
C1161      N1162   1.348       .  A
C1161      C1642   1.469       .  S
C1163      N1164   1.358       .  A
C1163      N1168   1.366       .  A
C1163      C1629   1.491       .  S
N1164      C1165   1.353       .  A
C1165      N1166   1.351       .  A
C1165      C1613   1.476       .  S
N1166      C1167   1.358       .  A
C1167      N1168   1.361       .  A
C1169      N1170   1.358       .  A
C1169      N1742   1.358   1_545  A
C1169      C1597   1.476       .  S
N1170      C1171   1.356       .  A
C1171      N1172   1.355       .  A
C1171      C1578   1.485       .  S
N1172      C1741   1.360   1_545  A
C1173      N1740   1.365       .  A
C1173      N1174   1.359       .  A
N1174      C1737   1.358       .  A
C1175      C1549   1.477       .  S
C1175      C1176   1.414       .  A
C1175      C1180   1.399       .  A
C1176      C1594   1.480       .  S
C1176      C1177   1.396       .  A
C1177      C1178   1.398       .  A
C1177      H1750   1.085   1_545  S
C1178      C2098   1.483   1_544  S
C1178      C1179   1.419       .  A
C1179      C1565   1.483   1_554  S
C1179      C1180   1.402       .  A
C1180      H1181   1.084       .  S
H1182      C1745   1.085       .  S
C1183      N1184   1.361       .  A
C1183      N1188   1.354       .  A
C1183      C1562   1.484       .  S
N1184      C1185   1.358       .  A
C1185      N1186   1.362       .  A
C1185      C1208   1.463       .  S
N1186      C1187   1.356       .  A
C1187      N1188   1.351       .  A
C1187      C1517   1.475       .  S
C1189      N1190   1.356       .  A
C1189      N1194   1.362       .  A
C1189      C1501   1.488       .  S
N1190      C1191   1.353       .  A
C1191      N1192   1.356       .  A
C1191      C1485   1.476       .  S
N1192      C1193   1.361       .  A
C1193      N1194   1.358       .  A
C1193      C1206   1.465       .  S
O1195      V1203   1.917       .  S
O1195      C1205   1.268       .  A
O1196      V1203   1.917       .  S
O1196      C1206   1.269       .  A
O1197      V1203   1.883       .  S
O1197      C1207   1.260       .  A
O1198      V1203   1.883       .  S
O1198      C1208   1.259       .  A
O1199      V1204   1.913       .  S
O1199      C1208   1.269       .  A
O1200      V1204   1.912       .  S
O1200      C1207   1.267       .  A
O1201      V1204   1.885       .  S
O1201      C1206   1.259       .  A
O1202      V1204   1.877       .  S
O1202      C1205   1.259       .  A
V1203      V1204   2.083       .  T
C1205      C1211   1.463       .  S
C1207      C1219   1.462       .  S
C1209      N1210   1.365       .  A
C1209      N1214   1.354       .  A
C1209      C1466   1.491       .  S
N1210      C1211   1.361       .  A
C1211      N1212   1.359       .  A
N1212      C1213   1.350       .  A
C1213      N1214   1.350       .  A
C1213      C1450   1.471       .  S
C1215      N1216   1.356       .  A
C1215      N1220   1.363       .  A
C1215      C1434   1.484       .  S
N1216      C1217   1.354       .  A
C1217      N1218   1.352       .  A
C1217      C1418   1.475       .  S
N1218      C1219   1.358       .  A
C1219      N1220   1.359       .  A
C1221      C1389   1.488       .  S
C1221      C1226   1.397       .  A
C1222      C1626   1.487       .  S
C1222      C1223   1.406       .  A
C1223      C1224   1.405       .  A
C1223      H1228   1.084       .  S
C1224      C1405   1.492   1_554  S
C1225      C1498   1.481   1_554  S
C1225      C1226   1.398       .  A
C1226      H1227   1.085       .  S
O1229      V1237   1.909       .  S
O1229      C1239   1.267       .  A
O1230      V1237   1.911       .  S
O1230      C1240   1.266       .  A
O1231      V1237   1.882       .  S
O1231      C1241   1.260       .  A
O1232      V1237   1.881       .  S
O1232      C1242   1.260       .  A
O1233      V1238   1.919       .  S
O1233      C1242   1.268       .  A
O1234      V1238   1.919       .  S
O1234      C1241   1.269       .  A
O1235      V1238   1.888       .  S
O1235      C1240   1.262       .  A
O1236      V1238   1.889       .  S
O1236      C1239   1.261       .  A
V1237      V1238   2.082       .  T
C1239      C1245   1.463       .  S
C1240      C1265   1.463       .  S
C1241      C1257   1.467       .  S
C1242      C1253   1.466       .  S
C1243      N1244   1.361       .  A
C1243      N1248   1.356       .  A
C1243      C1533   1.483       .  S
N1244      C1245   1.359       .  A
C1245      N1246   1.360       .  A
N1246      C1247   1.355       .  A
C1247      N1248   1.354       .  A
C1247      C1482   1.475       .  S
C1249      N1254   1.367       .  A
C1249      C1402   1.494       .  S
N1250      C1251   1.356       .  A
C1251      C1514   1.487       .  S
N1252      C1253   1.355       .  A
C1253      N1254   1.361       .  A
C1255      N1256   1.366       .  A
C1255      N1260   1.358       .  A
C1255      C1373   1.491       .  S
N1256      C1257   1.360       .  A
C1257      N1258   1.357       .  A
N1258      C1259   1.353       .  A
C1259      N1260   1.355       .  A
C1259      C1453   1.475       .  S
C1261      N1266   1.361       .  A
C1261      C1354   1.504       .  S
N1262      C1263   1.353       .  A
C1263      C1421   1.478       .  S
N1264      C1265   1.356       .  A
C1265      N1266   1.358       .  A
C1267      N1268   1.364       .  A
C1267      N1272   1.359       .  A
C1267      C1386   1.488       .  S
N1268      C1269   1.359       .  A
C1269      N1270   1.358       .  A
C1269      C1290   1.466       .  S
N1270      C1271   1.355       .  A
C1271      N1272   1.357       .  A
C1273      N1274   1.360       .  A
C1273      N1278   1.356       .  A
C1273      C1546   1.495       .  S
N1274      C1275   1.361       .  A
C1275      N1276   1.363       .  A
C1275      C1292   1.465       .  S
N1276      C1277   1.354       .  A
C1277      N1278   1.346       .  A
C1277      C1610   1.475       .  S
O1279      V1287   1.914       .  S
O1279      C1289   1.269       .  A
O1280      V1287   1.918       .  S
O1280      C1290   1.269       .  A
O1281      V1287   1.880       .  S
O1281      C1291   1.260       .  A
O1282      V1287   1.880       .  S
O1282      C1292   1.259       .  A
O1283      V1288   1.918       .  S
O1283      C1292   1.270       .  A
O1284      V1288   1.921       .  S
O1284      C1291   1.269       .  A
O1285      V1288   1.885       .  S
O1285      C1290   1.260       .  A
O1286      V1288   1.881       .  S
O1286      C1289   1.259       .  A
V1287      V1288   2.082       .  T
C1289      C1301   1.461       .  S
C1291      C1295   1.466       .  S
C1293      N1294   1.365       .  A
C1293      C1338   1.502       .  S
N1294      C1295   1.361       .  A
C1295      N1296   1.356       .  A
N1296      C1297   1.350       .  A
C1299      N1300   1.359       .  A
C1299      N1304   1.358       .  A
C1299      C1322   1.489       .  S
N1300      C1301   1.358       .  A
C1301      N1302   1.360       .  A
N1302      C1303   1.354       .  A
C1303      N1304   1.353       .  A
C1303      C1677   1.480       .  S
C1305      C1690   1.487       .  S
C1305      C1310   1.405       .  A
C1306      C1341   1.485       .  S
C1306      C1307   1.402       .  A
C1307      C1308   1.404       .  A
C1307      H1312   1.084       .  S
C1308      C1469   1.484       .  S
C1309      C1925   1.479   1_545  S
C1309      C1310   1.402       .  A
C1310      H1879   1.083   1_545  S
H1311      C1878   1.083       .  S
C1313      C1661   1.487       .  S
C1313      C1314   1.415       .  A
C1313      C1318   1.405       .  A
C1314      C1325   1.477       .  S
C1314      C1315   1.395       .  A
C1315      C1316   1.396       .  A
C1315      H1320   1.085       .  S
C1316      C1437   1.478       .  S
C1316      C1317   1.417       .  A
C1317      C1370   1.490       .  S
C1317      C1318   1.408       .  A
C1318      H1319   1.084       .  S
C1321      C1322   1.408       .  A
C1321      C1326   1.398       .  A
C1321      H1328   1.085       .  S
C1322      C1323   1.422       .  A
C1323      C1324   1.407       .  A
C1323      C1330   1.520       .  S
C1324      C1325   1.402       .  A
C1324      H1329   1.083       .  S
C1325      C1326   1.416       .  A
C1326      C1327   1.522       .  S
C1327      F1331   1.384       .  S
C1327      F1332   1.378       .  S
C1327      F1333   1.383       .  S
C1330      F1334   1.383       .  S
C1330      F1335   1.383       .  S
C1330      F1336   1.385       .  S
C1337      C1342   1.403       .  A
C1337      H1344   1.083       .  S
C1338      C1339   1.427       .  A
C1339      C1340   1.411       .  A
C1339      C1346   1.520       .  S
C1340      C1341   1.400       .  A
C1340      H1345   1.081       .  S
C1342      C1343   1.524   1_455  S
C1343      F1347   1.385       .  S
C1343      F1348   1.381   1_655  S
C1343      F1349   1.383       .  S
C1346      F1350   1.383       .  S
C1346      F1351   1.383       .  S
C1346      F1352   1.384       .  S
C1353      C1358   1.396       .  A
C1353      H1360   1.079       .  S
C1354      C1355   1.430       .  A
C1355      C1356   1.411       .  A
C1355      C1362   1.522       .  S
C1356      C1357   1.400       .  A
C1356      H1361   1.083       .  S
C1357      C1877   1.483       .  S
C1358      C1927   1.522       .  S
C1359      C1926   1.524       .  S
C1359      F1363   1.385       .  S
C1359      F1364   1.382       .  S
C1359      F1933   1.381       .  S
C1362      F1366   1.383       .  S
C1362      F1367   1.384       .  S
C1362      F1368   1.385       .  S
F1365      C1927   1.383       .  S
C1369      C1370   1.402       .  A
C1369      C1374   1.406       .  A
C1369      H1376   1.082       .  S
C1370      C1371   1.419       .  A
C1371      C1372   1.404       .  A
C1371      C1378   1.517       .  S
C1372      C1373   1.405       .  A
C1372      H1377   1.084       .  S
C1373      C1374   1.425       .  A
C1374      C1375   1.522       .  S
C1375      F1379   1.385       .  S
C1375      F1380   1.381       .  S
C1375      F1381   1.383       .  S
C1378      F1382   1.378       .  S
C1378      F1383   1.384       .  S
C1378      F1384   1.383       .  S
C1385      C1386   1.405       .  A
C1385      C1390   1.404       .  A
C1385      H1392   1.084       .  S
C1386      C1387   1.424       .  A
C1387      C1388   1.406       .  A
C1388      C1389   1.403       .  A
C1389      C1390   1.416       .  A
C1390      C1391   1.516       .  S
C1391      F1395   1.383       .  S
C1391      F1396   1.380       .  S
C1391      F1397   1.384       .  S
C1394      F1398   1.382       .  S
C1394      F1400   1.385       .  S
C1401      C1402   1.407       .  A
C1401      C1406   1.407       .  A
C1401      H1408   1.084       .  S
C1403      C1404   1.404       .  A
C1403      C1410   1.522       .  S
C1404      H1409   1.081       .  S
C1405      C1406   1.421       .  A
C1406      C1407   1.521       .  S
C1407      F1411   1.384       .  S
C1407      F1412   1.383       .  S
C1407      F1413   1.379       .  S
C1410      F1414   1.383       .  S
C1410      F1415   1.384       .  S
C1410      F1416   1.385       .  S
C1417      C1418   1.400       .  A
C1417      C1422   1.403       .  A
C1417      H1424   1.083       .  S
C1418      C1419   1.417       .  A
C1419      C1420   1.409       .  A
C1419      C1426   1.519       .  S
C1420      C1421   1.404       .  A
C1420      H1425   1.083       .  S
C1421      C1422   1.417       .  A
C1423      F1427   1.385       .  S
C1423      F1428   1.382       .  S
C1423      F1429   1.384   1_455  S
C1426      F1430   1.383       .  S
C1426      F1431   1.382       .  S
C1426      F1432   1.384       .  S
C1433      C1434   1.406       .  A
C1433      C1438   1.404       .  A
C1433      H1440   1.085       .  S
C1434      C1435   1.424       .  A
C1435      C1436   1.401       .  A
C1435      C1442   1.522       .  S
C1436      C1437   1.399       .  A
C1436      H1441   1.084       .  S
C1437      C1438   1.415       .  A
C1438      C1439   1.517       .  S
C1439      F1443   1.383       .  S
C1439      F1444   1.379       .  S
C1439      F1445   1.384       .  S
C1442      F1446   1.383       .  S
C1442      F1447   1.384       .  S
C1442      F1448   1.385       .  S
C1449      C1450   1.401       .  A
C1449      C2022   1.404   1_545  A
C1449      H1456   1.084       .  S
C1450      C2019   1.416   1_545  A
C1451      C2018   1.416       .  A
C1451      C1452   1.407       .  A
C1451      C1458   1.518       .  S
C1452      C1453   1.404       .  A
C1452      H1457   1.084       .  S
C1453      C1454   1.415       .  A
C1454      C2017   1.406       .  A
C1454      C1455   1.519       .  S
C1455      F2027   1.385       .  S
C1455      F1460   1.381       .  S
C1455      F1461   1.383       .  S
C1458      F1462   1.383       .  S
C1458      F1463   1.382       .  S
C1458      F1464   1.385       .  S
F1459      C2023   1.385   1_545  S
C1465      C1466   1.408       .  A
C1465      C1470   1.404       .  A
C1465      H1472   1.084       .  S
C1466      C1467   1.428       .  A
C1467      C1468   1.401       .  A
C1467      C1474   1.524   1_545  S
C1468      C1469   1.398       .  A
C1468      H1473   1.080   1_545  S
C1469      C1470   1.416       .  A
C1470      C2039   1.518       .  S
C1471      C2038   1.519       .  S
C1471      F1475   1.383       .  S
C1471      F1476   1.383       .  S
C1474      F1478   1.384       .  S
C1474      F1479   1.383       .  S
C1474      F1480   1.386       .  S
C1481      C1482   1.402       .  A
C1481      C1486   1.408       .  A
C1481      H1488   1.083       .  S
C1482      C1483   1.415       .  A
C1483      C1484   1.408       .  A
C1483      C1490   1.518       .  S
C1484      C1485   1.403       .  A
C1484      H1489   1.083       .  S
C1485      C1486   1.416       .  A
C1486      C1487   1.518       .  S
C1487      F1491   1.385       .  S
C1487      F1492   1.382       .  S
C1487      F1493   1.383       .  S
C1490      F1494   1.384       .  S
C1490      F1495   1.382       .  S
C1490      F1496   1.384       .  S
C1497      C1498   1.399       .  A
C1497      C1502   1.403       .  A
C1497      H1504   1.084   1_556  S
C1498      C1499   1.411       .  A
C1499      C1500   1.405       .  A
C1499      C1506   1.516       .  S
C1500      C1501   1.408       .  A
C1500      H1505   1.083       .  S
C1501      C1502   1.426       .  A
C1502      C1503   1.523       .  S
C1503      F1507   1.385   1_556  S
C1503      F1508   1.382       .  S
C1503      F1509   1.383       .  S
C1513      C1514   1.404       .  A
C1513      C2086   1.407       .  A
C1514      C1515   1.421       .  A
C1515      C1516   1.411       .  A
C1515      C1522   1.519       .  S
C1516      C2085   1.403       .  A
C1516      H1521   1.083       .  S
C1517      C2084   1.403   1_545  A
C1517      C1518   1.415       .  A
C1518      C2081   1.403   1_545  A
C1518      C1519   1.518       .  S
C1519      F1523   1.384       .  S
C1519      F1524   1.384       .  S
C1519      F1525   1.382       .  S
C1522      F1526   1.382       .  S
C1522      F1527   1.384       .  S
C1522      F1528   1.385       .  S
C1529      C1530   1.402       .  A
C1529      C1534   1.403       .  A
C1529      H1536   1.083   1_556  S
C1530      C1746   1.485   1_556  S
C1530      C1531   1.418       .  A
C1531      C1532   1.405       .  A
C1531      C2106   1.517       .  S
C1532      C1533   1.405       .  A
C1532      H1537   1.084       .  S
C1533      C1534   1.422       .  A
C1534      C1535   1.521       .  S
C1535      F1539   1.385   1_556  S
C1535      F1540   1.384       .  S
C1535      F1541   1.383       .  S
C1538      C2099   1.516       .  S
C1538      F1542   1.384       .  S
C1538      F1543   1.380       .  S
C1538      F1544   1.383       .  S
C1545      C1546   1.409       .  A
C1545      C1550   1.391       .  A
C1545      H1552   1.084       .  S
C1546      C1547   1.425       .  A
C1547      C1548   1.412       .  A
C1547      C1554   1.520       .  S
C1548      C1549   1.404       .  A
C1548      H1553   1.083       .  S
C1549      C1550   1.410       .  A
C1550      C1551   1.518       .  S
C1551      F1555   1.384       .  S
C1551      F1556   1.378       .  S
C1551      F1557   1.382       .  S
C1554      F1558   1.383       .  S
C1554      F1559   1.384       .  S
C1554      F1560   1.385       .  S
C1561      C1562   1.405       .  A
C1561      C1566   1.404       .  A
C1561      H1568   1.084       .  S
C1562      C1563   1.421       .  A
C1563      C1564   1.400       .  A
C1563      C1570   1.520   1_545  S
C1564      C1565   1.400       .  A
C1564      H1569   1.082   1_545  S
C1565      C1566   1.421       .  A
C1566      C1567   1.521       .  S
C1567      F1571   1.383       .  S
C1567      F1572   1.384       .  S
C1567      F1573   1.378       .  S
C1570      F1574   1.384       .  S
C1570      F1575   1.382       .  S
C1570      F1576   1.384       .  S
C1577      C1578   1.404       .  A
C1577      C1582   1.405       .  A
C1577      H1584   1.083       .  S
C1578      C1579   1.420       .  A
C1579      C1580   1.410       .  A
C1579      C1586   1.519       .  S
C1580      C1581   1.404       .  A
C1581      C1582   1.417       .  A
C1582      C1583   1.519       .  S
C1583      F1587   1.385       .  S
C1583      F1588   1.380       .  S
C1583      F1589   1.384       .  S
C1586      F2158   1.383   1_545  S
C1586      F1591   1.383   1_545  S
C1586      F1592   1.385   1_655  S
F1590      C2154   1.384       .  S
C1593      C1594   1.405       .  A
C1593      C1598   1.404       .  A
C1593      H1600   1.082       .  S
C1594      C1595   1.421       .  A
C1595      C1596   1.400       .  A
C1595      C1602   1.524       .  S
C1596      C1597   1.402       .  A
C1596      H1601   1.085       .  S
C1597      C1598   1.415       .  A
C1598      C1599   1.519   1_545  S
C1599      F1603   1.385       .  S
C1599      F1604   1.383   1_565  S
C1599      F2173   1.383       .  S
C1602      F1606   1.378       .  S
C1602      F1607   1.383       .  S
C1602      F1608   1.384       .  S
F1605      C2167   1.382       .  S
C1609      C1610   1.401       .  A
C1609      C1614   1.407       .  A
C1609      H1616   1.084       .  S
C1610      C1611   1.418       .  A
C1611      C1612   1.407       .  A
C1611      C1618   1.519       .  S
C1612      C1613   1.402       .  A
C1612      H1617   1.084       .  S
C1613      C1614   1.418       .  A
C1614      C1615   1.519       .  S
C1615      F1619   1.384       .  S
C1615      F1620   1.382       .  S
C1615      F1621   1.384       .  S
C1618      F1622   1.384       .  S
C1618      F1623   1.382       .  S
C1618      F1624   1.385       .  S
C1625      C1626   1.402       .  A
C1625      C1630   1.402       .  A
C1625      H1632   1.082       .  S
C1626      C1627   1.421       .  A
C1627      C1628   1.406       .  A
C1628      C1629   1.406       .  A
C1628      H1633   1.084       .  S
C1629      C1630   1.424       .  A
C1630      C1631   1.522       .  S
C1631      F1635   1.385       .  S
C1631      F1636   1.383       .  S
C1631      F1637   1.384       .  S
C1634      F1638   1.379       .  S
C1634      F1639   1.384       .  S
C1634      F1640   1.383       .  S
C1641      C1642   1.401       .  A
C1641      C1646   1.407       .  A
C1641      H1648   1.083       .  S
C1642      C1643   1.415       .  A
C1643      C1644   1.406       .  A
C1643      C1650   1.518       .  S
C1644      C1645   1.400       .  A
C1645      C1646   1.414       .  A
C1646      C1647   1.517       .  S
C1647      F1651   1.385       .  S
C1647      F1652   1.383       .  S
C1647      F1653   1.383       .  S
C1650      F1654   1.383       .  S
C1650      F1655   1.382       .  S
C1657      C1658   1.407       .  A
C1657      C1662   1.398       .  A
C1657      H1664   1.084       .  S
C1658      C1659   1.420       .  A
C1659      C1660   1.412       .  A
C1659      C1666   1.518       .  S
C1660      C1661   1.405       .  A
C1660      H1665   1.084       .  S
C1661      C1662   1.413       .  A
C1662      C1663   1.517       .  S
C1663      F1667   1.378       .  S
C1663      F1668   1.378       .  S
C1663      F1669   1.385       .  S
C1666      F1670   1.384       .  S
C1666      F1671   1.382       .  S
C1666      F1672   1.385       .  S
C1673      C1674   1.404       .  A
C1673      C1678   1.409       .  A
C1673      H1680   1.083       .  S
C1674      C1675   1.415       .  A
C1675      C1676   1.403       .  A
C1675      C1682   1.520       .  S
C1676      C1677   1.404       .  A
C1676      H1681   1.083       .  S
C1677      C1678   1.419       .  A
C1678      C1679   1.519       .  S
C1679      F1683   1.385       .  S
C1679      F1684   1.383       .  S
C1679      F1685   1.382       .  S
C1682      F2254   1.381       .  S
C1682      F2255   1.383       .  S
C1682      F1688   1.385       .  S
F1686      C2250   1.381       .  S
F1687      C2250   1.384       .  S
C1689      C1690   1.402       .  A
C1689      C1694   1.397       .  A
C1689      H2264   1.078       .  S
C1690      C1691   1.420   1_545  A
C1691      C1692   1.408       .  A
C1691      C1698   1.521       .  S
C1692      C1693   1.406   1_565  A
C1692      H1697   1.082       .  S
C1693      C1694   1.416       .  A
C1694      C2263   1.519       .  S
C1695      C2262   1.521       .  S
C1695      F1699   1.383       .  S
C1695      F1700   1.382       .  S
C1695      F2269   1.385       .  S
H1696      C2257   1.080       .  S
C1698      F1704   1.380       .  S
F1701      C2263   1.384       .  S
C1705      N1706   1.354       .  A
C1705      C2261   1.485       .  S
N1706      C1707   1.349       .  A
C1707      N1708   1.354       .  A
C1707      C2242   1.476       .  S
C1709      N1710   1.358       .  A
C1709      C1722   1.460       .  S
O1711      V1719   1.912       .  S
O1711      C1721   1.268       .  A
O1712      V1719   1.912       .  S
O1712      C1722   1.268       .  A
O1713      V1719   1.885       .  S
O1713      C1723   1.260       .  A
O1714      V1719   1.884       .  S
O1714      C1724   1.259       .  A
O1715      V1720   1.912       .  S
O1715      C1724   1.268       .  A
O1716      V1720   1.911       .  S
O1716      C1723   1.267       .  A
O1717      V1720   1.879       .  S
O1717      C1722   1.259       .  A
O1718      V1720   1.881       .  S
O1718      C1721   1.259       .  A
V1719      V1720   2.083       .  T
C1721      C1735   1.461       .  S
C1723      C1727   1.461       .  S
C1724      C1741   1.461       .  S
C1725      N1726   1.358       .  A
C1725      N1730   1.356       .  A
C1725      C2226   1.483       .  S
N1726      C1727   1.358       .  A
C1727      N1728   1.360       .  A
N1728      C1729   1.355       .  A
C1729      N1730   1.356       .  A
C1729      C2210   1.497       .  S
C1731      N1732   1.354       .  A
C1731      N1736   1.361       .  A
C1731      C2197   1.487       .  S
N1732      C1733   1.352       .  A
C1733      N1734   1.354       .  A
C1733      C2181   1.477       .  S
N1734      C1735   1.361       .  A
C1735      N1736   1.358       .  A
C1737      N1738   1.355       .  A
C1737      C2165   1.475       .  S
N1738      C1739   1.352       .  A
C1739      N1740   1.359       .  A
C1739      C2146   1.484       .  S
C1741      N1742   1.356       .  A
C1743      C2117   1.485       .  S
C1743      C1744   1.415       .  A
C1743      C1748   1.400       .  A
C1744      C2162   1.480       .  S
C1744      C1745   1.400       .  A
C1745      C1746   1.399       .  A
C1746      C1747   1.419       .  A
C1747      C2133   1.487   1_554  S
C1747      C1748   1.405       .  A
C1748      H1749   1.085       .  S
C1751      N1752   1.362       .  A
C1751      N1756   1.355       .  A
C1751      C2130   1.482       .  S
N1752      C1753   1.359       .  A
C1753      N1754   1.364       .  A
C1753      C1776   1.473       .  S
N1754      C1755   1.360       .  A
C1755      N1756   1.353       .  A
C1755      C2085   1.484       .  S
C1757      N1758   1.353       .  A
C1757      N1762   1.365       .  A
C1757      C2069   1.488       .  S
N1758      C1759   1.351       .  A
C1759      N1760   1.355       .  A
C1759      C2053   1.482       .  S
N1760      C1761   1.362       .  A
C1761      N1762   1.363       .  A
C1761      C1774   1.471       .  S
O1763      V1771   1.923       .  S
O1763      C1773   1.270       .  A
O1764      V1771   1.924       .  S
O1764      C1774   1.270       .  A
O1765      V1771   1.886       .  S
O1765      C1775   1.260       .  A
O1766      V1771   1.889       .  S
O1766      C1776   1.260       .  A
O1767      V1772   1.920       .  S
O1767      C1776   1.271       .  A
O1768      V1772   1.921       .  S
O1768      C1775   1.269       .  A
O1769      V1772   1.884       .  S
O1769      C1774   1.260       .  A
O1770      V1772   1.882       .  S
O1770      C1773   1.259       .  A
V1771      V1772   2.082       .  T
C1773      C1779   1.470       .  S
C1775      C1787   1.469       .  S
C1777      N1778   1.366       .  A
C1777      N1782   1.352       .  A
C1777      C2034   1.500       .  S
N1778      C1779   1.362       .  A
C1779      N1780   1.362       .  A
N1780      C1781   1.354       .  A
C1781      N1782   1.350       .  A
C1781      C2018   1.476       .  S
C1783      N1784   1.354       .  A
C1783      N1788   1.366       .  A
C1783      C2002   1.488       .  S
N1784      C1785   1.351       .  A
C1785      N1786   1.353       .  A
C1785      C1986   1.471       .  S
N1786      C1787   1.360       .  A
C1787      N1788   1.362       .  A
C1789      C1957   1.488       .  S
C1789      C1794   1.399       .  A
C1790      C2194   1.484       .  S
C1790      C1791   1.407       .  A
C1791      C1792   1.406       .  A
C1791      H1796   1.084       .  S
C1792      C1973   1.491   1_554  S
C1793      C2066   1.481   1_554  S
C1793      C1794   1.397       .  A
C1794      H1795   1.085       .  S
O1797      V1805   1.915       .  S
O1797      C1807   1.269       .  A
O1798      V1805   1.917       .  S
O1798      C1808   1.268       .  A
O1799      V1805   1.881       .  S
O1799      C1809   1.259       .  A
O1800      V1805   1.884       .  S
O1800      C1810   1.260       .  A
O1801      V1806   1.921       .  S
O1801      C1810   1.270       .  A
O1802      V1806   1.919       .  S
O1802      C1809   1.269       .  A
O1803      V1806   1.879       .  S
O1803      C1808   1.259       .  A
O1804      V1806   1.882       .  S
O1804      C1807   1.258       .  A
V1805      V1806   2.082       .  T
C1807      C1813   1.462       .  S
C1808      C1833   1.463       .  S
C1809      C1825   1.466       .  S
C1810      C1821   1.470       .  S
C1811      N1812   1.359       .  A
C1811      N1816   1.358       .  A
C1811      C2101   1.477       .  S
N1812      C1813   1.355       .  A
C1813      N1814   1.360       .  A
N1814      C1815   1.356       .  A
C1815      N1816   1.357       .  A
C1815      C2050   1.483       .  S
C1817      N1822   1.365       .  A
C1817      C1970   1.492       .  S
N1818      C1819   1.355       .  A
C1819      C2082   1.478       .  S
N1820      C1821   1.361       .  A
C1821      N1822   1.361       .  A
C1823      N1824   1.364       .  A
C1823      N1828   1.358       .  A
C1823      C1941   1.490       .  S
N1824      C1825   1.358       .  A
C1825      N1826   1.357       .  A
N1826      C1827   1.353       .  A
C1827      N1828   1.355       .  A
C1827      C2021   1.474       .  S
C1829      N1834   1.362       .  A
C1829      C1922   1.504       .  S
N1830      C1831   1.355       .  A
C1831      C1989   1.471       .  S
N1832      C1833   1.356       .  A
C1833      N1834   1.359       .  A
C1835      N1836   1.361       .  A
C1835      N1840   1.357       .  A
C1835      C1954   1.483       .  S
N1836      C1837   1.358       .  A
C1837      N1838   1.359       .  A
C1837      C1858   1.463       .  S
N1838      C1839   1.355       .  A
C1839      N1840   1.355       .  A
C1841      N1842   1.364       .  A
C1841      N1846   1.359       .  A
C1841      C2114   1.504       .  S
N1842      C1843   1.363       .  A
C1843      N1844   1.362       .  A
C1843      C1860   1.472       .  S
N1844      C1845   1.354       .  A
C1845      N1846   1.350       .  A
C1845      C2178   1.482       .  S
O1847      V1855   1.917       .  S
O1847      C1857   1.268       .  A
O1848      V1855   1.915       .  S
O1848      C1858   1.269       .  A
O1849      V1855   1.881       .  S
O1849      C1859   1.259       .  A
O1850      V1855   1.883       .  S
O1850      C1860   1.260       .  A
O1851      V1856   1.925       .  S
O1851      C1860   1.271       .  A
O1852      V1856   1.921       .  S
O1852      C1859   1.270       .  A
O1853      V1856   1.883       .  S
O1853      C1858   1.259       .  A
O1854      V1856   1.879       .  S
O1854      C1857   1.260       .  A
V1855      V1856   2.082       .  T
C1857      C1869   1.463       .  S
C1859      C1863   1.466       .  S
C1861      N1862   1.362       .  A
C1861      C1906   1.491       .  S
N1862      C1863   1.359       .  A
C1863      N1864   1.358       .  A
N1864      C1865   1.353       .  A
C1867      N1868   1.363       .  A
C1867      N1872   1.363       .  A
C1867      C1890   1.499       .  S
N1868      C1869   1.359       .  A
C1869      N1870   1.355       .  A
N1870      C1871   1.350       .  A
C1871      N1872   1.356       .  A
C1871      C2245   1.480       .  S
C1873      C2258   1.491       .  S
C1873      C1878   1.404       .  A
C1874      C1909   1.481       .  S
C1874      C1875   1.399       .  A
C1875      C1876   1.395       .  A
C1875      H1880   1.084       .  S
C1876      C2037   1.476       .  S
C1877      C1878   1.404       .  A
C1881      C2229   1.481       .  S
C1881      C1882   1.416       .  A
C1881      C1886   1.404       .  A
C1882      C1893   1.488       .  S
C1882      C1883   1.398       .  A
C1883      C1884   1.399       .  A
C1883      H1888   1.086       .  S
C1884      C2005   1.481       .  S
C1884      C1885   1.419       .  A
C1885      C1938   1.493       .  S
C1885      C1886   1.404       .  A
C1886      H1887   1.083       .  S
C1889      C1890   1.410       .  A
C1889      C1894   1.404       .  A
C1889      H1896   1.082       .  S
C1890      C1891   1.426       .  A
C1891      C1892   1.410       .  A
C1891      C1898   1.520       .  S
C1892      C1893   1.402       .  A
C1892      H1897   1.083       .  S
C1893      C1894   1.415       .  A
C1894      C1895   1.520       .  S
C1895      F1899   1.381       .  S
C1895      F1900   1.377       .  S
C1895      F1901   1.384       .  S
C1898      F1902   1.383       .  S
C1898      F1903   1.383       .  S
C1898      F1904   1.385       .  S
C1905      C1910   1.401       .  A
C1905      H1912   1.083   1_455  S
C1906      C1907   1.423       .  A
C1907      C1908   1.407       .  A
C1907      C1914   1.519       .  S
C1908      C1909   1.400       .  A
C1908      H1913   1.081       .  S
C1910      C1911   1.523   1_455  S
C1911      F1915   1.385       .  S
C1911      F1916   1.381   1_655  S
C1911      F1917   1.383       .  S
C1914      F1918   1.383       .  S
C1914      F1919   1.383       .  S
C1914      F1920   1.385       .  S
C1921      C1926   1.402       .  A
C1921      H1928   1.078       .  S
C1922      C1923   1.430       .  A
C1923      C1924   1.410       .  A
C1923      C1930   1.522       .  S
C1924      C1925   1.399       .  A
C1924      H1929   1.082   1_565  S
C1927      F1931   1.384       .  S
C1927      F1932   1.380       .  S
C1930      F1934   1.383       .  S
C1930      F1935   1.383       .  S
C1930      F1936   1.385   1_565  S
C1937      C1938   1.403       .  A
C1937      C1942   1.406       .  A
C1937      H1944   1.082       .  S
C1938      C1939   1.421       .  A
C1939      C1940   1.405       .  A
C1939      C1946   1.521       .  S
C1940      C1941   1.404       .  A
C1940      H1945   1.083       .  S
C1941      C1942   1.423       .  A
C1942      C1943   1.521       .  S
C1943      F1947   1.385       .  S
C1943      F1948   1.382       .  S
C1943      F1949   1.384       .  S
C1946      F1950   1.378       .  S
C1946      F1951   1.385       .  S
C1946      F1952   1.380       .  S
C1953      C1954   1.404       .  A
C1953      C1958   1.404       .  A
C1953      H1960   1.085       .  S
C1954      C1955   1.422       .  A
C1955      C1956   1.404       .  A
C1956      C1957   1.403       .  A
C1957      C1958   1.417       .  A
C1958      C1959   1.516       .  S
C1959      F1963   1.382       .  S
C1959      F1964   1.380       .  S
C1959      F1965   1.384       .  S
C1962      F1966   1.382       .  S
C1962      F1968   1.385       .  S
C1969      C1970   1.407       .  A
C1969      C1974   1.407       .  A
C1969      H1976   1.084       .  S
C1971      C1972   1.405       .  A
C1971      C1978   1.522       .  S
C1972      H1977   1.081       .  S
C1973      C1974   1.420       .  A
C1974      C1975   1.520       .  S
C1975      F1979   1.384       .  S
C1975      F1980   1.383       .  S
C1975      F1981   1.380       .  S
C1978      F1982   1.383       .  S
C1978      F1983   1.384       .  S
C1978      F1984   1.385       .  S
C1985      C1986   1.401       .  A
C1985      C1990   1.404       .  A
C1985      H1992   1.083       .  S
C1986      C1987   1.415       .  A
C1987      C1988   1.408       .  A
C1987      C1994   1.518       .  S
C1988      C1989   1.403       .  A
C1988      H1993   1.083       .  S
C1989      C1990   1.414       .  A
C1991      F1995   1.385       .  S
C1991      F1996   1.383       .  S
C1991      F1997   1.383       .  S
C1994      F1998   1.383       .  S
C1994      F1999   1.383       .  S
C1994      F2000   1.385       .  S
C2001      C2002   1.406       .  A
C2001      C2006   1.405       .  A
C2001      H2008   1.084       .  S
C2002      C2003   1.427       .  A
C2003      C2004   1.404       .  A
C2003      C2010   1.523       .  S
C2004      C2005   1.399       .  A
C2004      H2009   1.084       .  S
C2005      C2006   1.414       .  A
C2006      C2007   1.515       .  S
C2007      F2011   1.383       .  S
C2007      F2012   1.380       .  S
C2007      F2013   1.384       .  S
C2010      F2014   1.383       .  S
C2010      F2015   1.383       .  S
C2010      F2016   1.385       .  S
C2017      C2018   1.404       .  A
C2017      H2024   1.083       .  S
C2019      C2020   1.407       .  A
C2019      C2026   1.519       .  S
C2020      C2021   1.404       .  A
C2020      H2025   1.083       .  S
C2021      C2022   1.415       .  A
C2022      C2023   1.518       .  S
C2023      F2028   1.380       .  S
C2023      F2029   1.383       .  S
C2026      F2030   1.383       .  S
C2026      F2031   1.383   1_565  S
C2026      F2032   1.385       .  S
C2033      C2034   1.410       .  A
C2033      C2038   1.403       .  A
C2033      H2040   1.083       .  S
C2034      C2035   1.435       .  A
C2035      C2036   1.404       .  A
C2035      C2042   1.526       .  S
C2036      C2037   1.394       .  A
C2036      H2041   1.081       .  S
C2037      C2038   1.412       .  A
C2039      F2043   1.383       .  S
C2039      F2044   1.384       .  S
C2042      F2046   1.384       .  S
C2042      F2047   1.383       .  S
C2042      F2048   1.385       .  S
C2049      C2050   1.405       .  A
C2049      C2054   1.411       .  A
C2049      H2056   1.083       .  S
C2050      C2051   1.417       .  A
C2051      C2052   1.405       .  A
C2051      C2058   1.518       .  S
C2052      C2053   1.403       .  A
C2052      H2057   1.083       .  S
C2053      C2054   1.418       .  A
C2054      C2055   1.518       .  S
C2055      F2059   1.384       .  S
C2055      F2060   1.383       .  S
C2055      F2061   1.384       .  S
C2058      F2062   1.384       .  S
C2058      F2063   1.379       .  S
C2058      F2064   1.385       .  S
C2065      C2066   1.397       .  A
C2065      C2070   1.401       .  A
C2065      H2072   1.084   1_556  S
C2066      C2067   1.417       .  A
C2067      C2068   1.406       .  A
C2067      C2074   1.516       .  S
C2068      C2069   1.406       .  A
C2068      H2073   1.084       .  S
C2069      C2070   1.428       .  A
C2070      C2071   1.524       .  S
C2071      F2075   1.385       .  S
C2071      F2076   1.383       .  S
C2071      F2077   1.383       .  S
C2081      C2082   1.401       .  A
C2082      C2083   1.419       .  A
C2083      C2084   1.411       .  A
C2083      C2090   1.519       .  S
C2084      H2089   1.084   1_565  S
C2085      C2086   1.419       .  A
C2086      C2087   1.520       .  S
C2087      F2091   1.385       .  S
C2087      F2092   1.383       .  S
C2087      F2093   1.381       .  S
C2090      F2094   1.383       .  S
C2090      F2095   1.384       .  S
C2090      F2096   1.385       .  S
C2097      C2098   1.403       .  A
C2097      C2102   1.402       .  A
C2097      H2104   1.083   1_556  S
C2098      C2099   1.417   1_565  A
C2099      C2100   1.403   1_545  A
C2100      C2101   1.404       .  A
C2100      H2105   1.084       .  S
C2101      C2102   1.419       .  A
C2102      C2103   1.520       .  S
C2103      F2107   1.385   1_556  S
C2103      F2108   1.384       .  S
C2103      F2109   1.382       .  S
C2106      F2110   1.384       .  S
C2106      F2111   1.380       .  S
C2106      F2112   1.383       .  S
C2113      C2114   1.412       .  A
C2113      C2118   1.399       .  A
C2113      H2120   1.083       .  S
C2114      C2115   1.427       .  A
C2115      C2116   1.413       .  A
C2115      C2122   1.519       .  S
C2116      C2117   1.403       .  A
C2116      H2121   1.083       .  S
C2117      C2118   1.412       .  A
C2118      C2119   1.519       .  S
C2119      F2123   1.384       .  S
C2119      F2124   1.378       .  S
C2119      F2125   1.382       .  S
C2122      F2126   1.384       .  S
C2122      F2127   1.383       .  S
C2122      F2128   1.385       .  S
C2129      C2130   1.404       .  A
C2129      C2134   1.404       .  A
C2129      H2136   1.085       .  S
C2130      C2131   1.420       .  A
C2131      C2132   1.401       .  A
C2131      C2138   1.521       .  S
C2132      C2133   1.403       .  A
C2132      H2137   1.081       .  S
C2133      C2134   1.422       .  A
C2134      C2135   1.521       .  S
C2135      F2139   1.383       .  S
C2135      F2140   1.384       .  S
C2135      F2141   1.379       .  S
C2138      F2142   1.384       .  S
C2138      F2143   1.380       .  S
C2138      F2144   1.385       .  S
C2145      C2146   1.404       .  A
C2145      C2150   1.406       .  A
C2145      H2152   1.083       .  S
C2146      C2147   1.417       .  A
C2147      C2148   1.412       .  A
C2147      C2154   1.518       .  S
C2148      C2149   1.406       .  A
C2149      C2150   1.418       .  A
C2150      C2151   1.520       .  S
C2151      F2155   1.385       .  S
C2151      F2156   1.381       .  S
C2151      F2157   1.383       .  S
C2154      F2159   1.383       .  S
C2154      F2160   1.384   1_655  S
C2161      C2162   1.407       .  A
C2161      C2166   1.406       .  A
C2161      H2168   1.083       .  S
C2162      C2163   1.421       .  A
C2163      C2164   1.398       .  A
C2163      C2170   1.523       .  S
C2164      C2165   1.402       .  A
C2164      H2169   1.085       .  S
C2165      C2166   1.414       .  A
C2166      C2167   1.518       .  S
C2167      F2171   1.385       .  S
C2167      F2172   1.383       .  S
C2170      F2174   1.378       .  S
C2170      F2175   1.383       .  S
C2170      F2176   1.384       .  S
C2177      C2178   1.406       .  A
C2177      C2182   1.412       .  A
C2177      H2184   1.083       .  S
C2178      C2179   1.419       .  A
C2179      C2180   1.403       .  A
C2179      C2186   1.519       .  S
C2180      C2181   1.400       .  A
C2180      H2185   1.084       .  S
C2181      C2182   1.417       .  A
C2182      C2183   1.519       .  S
C2183      F2187   1.385       .  S
C2183      F2188   1.383       .  S
C2183      F2189   1.384       .  S
C2186      F2190   1.383       .  S
C2186      F2191   1.382       .  S
C2186      F2192   1.385       .  S
C2193      C2194   1.401       .  A
C2193      C2198   1.400       .  A
C2193      H2200   1.082       .  S
C2194      C2195   1.420       .  A
C2195      C2196   1.405       .  A
C2196      C2197   1.407       .  A
C2196      H2201   1.084       .  S
C2197      C2198   1.423       .  A
C2198      C2199   1.523       .  S
C2199      F2203   1.385       .  S
C2199      F2204   1.383       .  S
C2199      F2205   1.384       .  S
C2202      F2206   1.380       .  S
C2202      F2207   1.384       .  S
C2202      F2208   1.383       .  S
C2209      C2210   1.405       .  A
C2209      C2214   1.402       .  A
C2209      H2216   1.082       .  S
C2210      C2211   1.423       .  A
C2211      C2212   1.412       .  A
C2211      C2218   1.520       .  S
C2212      C2213   1.409       .  A
C2213      C2214   1.422       .  A
C2214      C2215   1.520       .  S
C2215      F2219   1.385       .  S
C2215      F2220   1.382       .  S
C2215      F2221   1.384       .  S
C2218      F2222   1.383       .  S
C2218      F2223   1.384       .  S
C2225      C2226   1.404       .  A
C2225      C2230   1.399       .  A
C2225      H2232   1.086       .  S
C2226      C2227   1.418       .  A
C2227      C2228   1.409       .  A
C2227      C2234   1.518       .  S
C2228      C2229   1.404       .  A
C2228      H2233   1.084       .  S
C2229      C2230   1.418       .  A
C2230      C2231   1.519       .  S
C2231      F2235   1.384       .  S
C2231      F2236   1.377       .  S
C2231      F2237   1.384       .  S
C2234      F2238   1.384       .  S
C2234      F2239   1.383       .  S
C2234      F2240   1.384       .  S
C2241      C2242   1.402       .  A
C2241      C2246   1.409       .  A
C2241      H2248   1.083       .  S
C2242      C2243   1.415       .  A
C2243      C2244   1.405       .  A
C2243      C2250   1.519       .  S
C2244      C2245   1.403       .  A
C2244      H2249   1.083       .  S
C2245      C2246   1.420       .  A
C2246      C2247   1.521       .  S
C2247      F2251   1.385       .  S
C2247      F2252   1.383       .  S
C2247      F2253   1.383       .  S
C2250      F2256   1.384       .  S
C2257      C2258   1.400       .  A
C2257      C2262   1.399       .  A
C2258      C2259   1.419       .  A
C2259      C2260   1.409       .  A
C2259      C2266   1.517       .  S
C2260      C2261   1.405       .  A
C2260      H2265   1.083       .  S
C2261      C2262   1.421       .  A
C2263      F2267   1.385       .  S
C2263      F2268   1.381       .  S
C2266      F2272   1.382       .  S
