geometry optimzed in LAMMPS
_audit_creation_date              2020-11-30 
_audit_creation_method            'lammps2cif' 
_symmetry_space_group_name_H-M    'P1' 
_symmetry_Int_Tables_number       1 
_symmetry_cell_setting            triclinic 
loop_ 
_symmetry_equiv_pos_as_xyz 
  x,y,z 
_cell_length_a                    46.38462875 
_cell_length_b                    46.304320450061205 
_cell_length_c                    46.491856546100635 
_cell_angle_alpha                 90.14127681353786 
_cell_angle_beta                  89.83440557026437 
_cell_angle_gamma                 90.2749282928525 
loop_ 
_atom_site_label 
_atom_site_type_symbol 
_atom_site_fract_x 
_atom_site_fract_y 
_atom_site_fract_z 
_atom_site_charge 
C1          C  0.81964021  0.82755674  0.61975565     0.80600
N2          N  0.80889686  0.85227380  0.60812272    -0.77700
C3          C  0.82331972  0.86625062  0.58671867     0.83000
N4          N  0.84845309  0.85514274  0.57687276    -0.77700
C5          C  0.85952306  0.83048622  0.58787518     0.83100
N6          N  0.84494473  0.81671007  0.60934179    -0.79400
C7          C  0.82284261  0.60407856  0.84463837     0.71800
N8          N  0.80813374  0.62438835  0.82967759    -0.77700
C9          C  0.81838880  0.63438320  0.80403511     0.83000
N10         N  0.84354149  0.62343768  0.79338106    -0.77700
C11         C  0.85837841  0.60300158  0.80821295     0.83100
N12         N  0.84778282  0.59367676  0.83372043    -0.79400
C13         C  0.63303297  0.82683186  0.81421425     0.80600
N14         N  0.62087999  0.85133804  0.80353443    -0.77700
C15         C  0.59979371  0.86539805  0.81842778     0.83000
N16         N  0.59107113  0.85464616  0.84416804    -0.77700
C17         C  0.60284749  0.83031208  0.85514752     0.83100
N18         N  0.62365140  0.81643581  0.83995205    -0.79400
C19         C  0.72741876  0.77041731  0.75315818     0.80600
N20         N  0.73973671  0.78265959  0.72951162    -0.77700
C21         C  0.76283288  0.77025557  0.71631967     0.83000
N22         N  0.77366898  0.74535244  0.72725400    -0.77700
C23         C  0.76174227  0.73271074  0.75086939     0.83100
N24         N  0.73868220  0.74550040  0.76368828    -0.79400
C25         C  0.18724340  0.64089567  0.17249092     0.80600
N26         N  0.16240027  0.62983601  0.18388108    -0.77700
C27         C  0.14778726  0.60826526  0.17029692     0.83000
N28         N  0.15833384  0.59773077  0.14527448    -0.77700
C29         C  0.18288668  0.60816380  0.13336215     0.83100
N30         N  0.19746353  0.62978166  0.14716609    -0.79400
C31         C  0.27685374  0.77750506  0.22755550     0.80600
N32         N  0.26516631  0.75288826  0.21641963    -0.77700
C33         C  0.24196235  0.73991521  0.22904864     0.83000
N34         N  0.23031706  0.75215360  0.25312016    -0.77700
C35         C  0.24153765  0.77690110  0.26457166     0.83100
N36         N  0.26481979  0.78931899  0.25156260    -0.79400
C37         C  0.18674756  0.19105682  0.62127441     0.80600
N38         N  0.19928297  0.16747130  0.60887475    -0.77700
C39         C  0.18677093  0.15412656  0.58595572     0.83000
N40         N  0.16181750  0.16468558  0.57545081    -0.77700
C41         C  0.14898352  0.18807704  0.58722326     0.83100
N42         N  0.16158167  0.20129851  0.61017627    -0.79400
C43         C  0.23939222  0.28122096  0.75742410     0.80600
N44         N  0.22760811  0.26812071  0.73403077    -0.77700
C45         C  0.24080557  0.24550768  0.72089607     0.83000
N46         N  0.26631752  0.23598348  0.73150892    -0.77700
C47         C  0.27870848  0.24870081  0.75487084     0.83100
N48         N  0.26501585  0.27132530  0.76774594    -0.79400
C49         C  0.60618916  0.19097186  0.12915914     0.80600
N50         N  0.59780169  0.16487554  0.13927609    -0.77700
C51         C  0.61010979  0.15293705  0.16265386     0.83000
N52         N  0.63135725  0.16767384  0.17649260    -0.77700
C53         C  0.64053999  0.19395066  0.16676464     0.83100
N54         N  0.62768182  0.20558099  0.14304980    -0.79400
C55         C  0.73497483  0.25149470  0.22749120     0.80600
N56         N  0.74751998  0.27558233  0.21625374    -0.77700
C57         C  0.77106987  0.28790519  0.22882693     0.83000
N58         N  0.78209888  0.27569737  0.25302392    -0.77700
C59         C  0.76985489  0.25164580  0.26471667     0.83100
N60         N  0.74637323  0.23975754  0.25169250    -0.79400
O61         O  0.53057100  0.30457369  0.97058751    -0.57500
C62         C  0.46062343  0.28835028  0.02949907     0.75200
O63         O  0.48412859  0.22327943  0.96309735    -0.58600
C64         C  0.54723634  0.28848610  0.95594353     0.75100
C65         C  0.54039884  0.23947398  0.03502781     0.77500
Cd66       Cd  0.50341688  0.26387124  0.99211078     1.37500
O67         O  0.47646478  0.30425740  0.01373957    -0.57400
O68         O  0.54055014  0.26618745  0.02940808    -0.56300
C69         C  0.46815817  0.23883010  0.94733984     0.77500
O70         O  0.52328749  0.22383577  0.02033171    -0.58600
O71         O  0.46521120  0.26145538  0.02820025    -0.57100
O72         O  0.54297253  0.26156017  0.95791794    -0.57100
O73         O  0.46764562  0.26550106  0.95328203    -0.56200
O74         O  0.21195882  0.52961005  0.01949303    -0.57500
C75         C  0.22677609  0.47288032  0.94811343     0.75200
O76         O  0.29244901  0.53749254  0.97110416    -0.58600
C77         C  0.22783974  0.54606044  0.03466459     0.75100
C78         C  0.27790081  0.46638153  0.02680030     0.77500
Cd79       Cd  0.25217064  0.50944276  0.99099641     1.37500
O80         O  0.21147688  0.48948926  0.96361305    -0.57400
O81         O  0.25102231  0.47093164  0.02657566    -0.56300
C82         C  0.27705670  0.55319775  0.95497037     0.77500
O83         O  0.29322459  0.48234369  0.01061282    -0.58600
O84         O  0.25355398  0.47278561  0.95318472    -0.57100
O85         O  0.25452682  0.54565696  0.02910539    -0.57100
O86         O  0.25032135  0.54765103  0.95466537    -0.56200
C87         C  0.32385512  0.36794041  0.08726149     0.80600
N88         N  0.30914814  0.35313890  0.10788802    -0.77700
C89         C  0.31981522  0.32808975  0.11874894     0.83000
N90         N  0.34531304  0.31784668  0.10851217    -0.77700
C91         C  0.36021126  0.33245120  0.08798353     0.83100
N92         N  0.34933392  0.35741851  0.07758014    -0.79400
O93         O  0.53229079  0.03956357  0.19488877    -0.57500
C94         C  0.47340929  0.96931172  0.21214187     0.75200
O95         O  0.53762474  0.99309994  0.27747686    -0.58600
C96         C  0.54851151  0.05551381  0.21022495     0.75100
C97         C  0.46874586  0.05179900  0.26134643     0.77500
Cd98       Cd  0.51074954  0.01338793  0.23632632     1.37500
O99         O  0.48916198  0.98522928  0.19631177    -0.57400
O100        O  0.47282557  0.04993198  0.23449134    -0.56300
C101        C  0.55415453  0.97757597  0.26212895     0.77500
O102        O  0.48459600  0.03604189  0.27699742    -0.58600
O103        O  0.47467321  0.97421328  0.23889972    -0.57100
O104        O  0.54721014  0.05152230  0.23708918    -0.57100
O105        O  0.55004620  0.97845770  0.23525630    -0.56200
O106        O  0.30519309  0.99232706  0.51651491    -0.57500
C107        C  0.28834023  0.04723133  0.44369915     0.75200
O108        O  0.22143324  0.98575237  0.47260303    -0.58600
C109        C  0.28938712  0.97688034  0.53276894     0.75100
C110        C  0.23889952  0.05855737  0.52450254     0.77500
Cd111      Cd  0.26385185  0.01350372  0.48971359     1.37500
O112        O  0.30402340  0.03145127  0.45949055    -0.57400
O113        O  0.26579857  0.05405075  0.52416177    -0.56300
C114        C  0.23571704  0.96909171  0.45625637     0.77500
O115        O  0.22360640  0.04184790  0.50908524    -0.58600
O116        O  0.26181053  0.04796807  0.44999281    -0.57100
O117        O  0.26248827  0.97894086  0.52903617    -0.57100
O118        O  0.26260599  0.97364132  0.45503773    -0.56200
C119        C  0.36969202  0.11021307  0.30827705     0.80600
N120        N  0.35417035  0.13039448  0.29393107    -0.77700
C121        C  0.32779280  0.13876298  0.30380109     0.83000
N122        N  0.31689705  0.12632229  0.32805032    -0.77700
C123        C  0.33215747  0.10600854  0.34248934     0.83100
N124        N  0.35843836  0.09821597  0.33238168    -0.79400
O125        O  0.03080153  0.48193680  0.28886471    -0.57500
C126        C  0.97352341  0.55361275  0.27370913     0.75200
O127        O  0.03750192  0.52882618  0.20795152    -0.58600
C128        C  0.04556332  0.46562209  0.27253559     0.75100
C129        C  0.96537994  0.47593874  0.22083363     0.77500
Cd130      Cd  0.00952363  0.50992615  0.24853879     1.37500
O131        O  0.98825218  0.53699132  0.28960478    -0.57400
O132        O  0.97003481  0.47452531  0.24760420    -0.56300
C133        C  0.05276803  0.54616454  0.22268370     0.77500
O134        O  0.98174394  0.49269088  0.20660055    -0.58600
O135        O  0.97539252  0.54934106  0.24691705    -0.57100
O136        O  0.04363905  0.47035041  0.24584930    -0.57100
O137        O  0.04780999  0.54679789  0.24944874    -0.56200
O138        O  0.03298051  0.21561813  0.51133552    -0.57500
C139        C  0.96010904  0.23180957  0.45688477     0.75200
O140        O  0.98680695  0.29790447  0.51836603    -0.58600
C141        C  0.05034950  0.23153877  0.52536998     0.75100
C142        C  0.04014143  0.28035915  0.44516896     0.77500
Cd143      Cd  0.00569251  0.25639164  0.49072504     1.37500
O144        O  0.97699043  0.21584265  0.47121616    -0.57400
O145        O  0.03699680  0.25341591  0.44846136    -0.56300
C146        C  0.97130251  0.28268411  0.53509615     0.77500
O147        O  0.02715580  0.29644218  0.46313078    -0.58600
O148        O  0.96471344  0.25873727  0.45826764    -0.57100
O149        O  0.04672774  0.25850004  0.52328161    -0.57100
O150        O  0.97177733  0.25567529  0.53095156    -0.56200
C151        C  0.10660990  0.36671278  0.31629171     0.80600
N152        N  0.12632119  0.35142644  0.30086175    -0.77700
C153        C  0.13549445  0.32512467  0.31017939     0.83000
N154        N  0.12418895  0.31405079  0.33486632    -0.77700
C155        C  0.10445842  0.32915826  0.35037008     0.83100
N156        N  0.09586634  0.35536321  0.34090983    -0.79400
C157        C  0.26341193  0.26714170  0.21245525     0.80600
N158        N  0.27564058  0.24342301  0.22422820    -0.77700
C159        C  0.26425638  0.23080028  0.24806316     0.83000
N160        N  0.24026279  0.24241613  0.26037455    -0.77700
C161        C  0.22772556  0.26631444  0.24888750     0.83100
N162        N  0.23955892  0.27843337  0.22502130    -0.79400
C163        C  0.18542550  0.86988924  0.39818989     0.80600
N164        N  0.19814216  0.85622626  0.37554344    -0.77700
C165        C  0.18663627  0.83144010  0.36440913     0.83000
N166        N  0.16207371  0.82037163  0.37643598    -0.77700
C167        C  0.14903265  0.83394061  0.39902482     0.83100
N168        N  0.16097237  0.85853239  0.40961157    -0.79400
C169        C  0.82253556  0.19183470  0.36163540     0.80600
N170        N  0.84734698  0.20246906  0.37342162    -0.77700
C171        C  0.86103254  0.18788931  0.39473984     0.83000
N172        N  0.84962222  0.16270894  0.40419491    -0.77700
C173        C  0.82496784  0.15170678  0.39308553     0.83100
N174        N  0.81140841  0.16642771  0.37175936    -0.79400
C175        C  0.40862403  0.83452975  0.13226846     0.80600
N176        N  0.38593288  0.82163720  0.14576064    -0.77700
C177        C  0.37440114  0.83329594  0.17016228     0.83000
N178        N  0.38617344  0.85807391  0.18120186    -0.77700
C179        C  0.40879307  0.87126400  0.16769793     0.83100
N180        N  0.41963915  0.85923195  0.14342456    -0.79400
C181        C  0.18154627  0.37873712  0.81226782     0.80600
N182        N  0.15740161  0.39040051  0.80024560    -0.77700
C183        C  0.14405002  0.41332435  0.81291830     0.83000
N184        N  0.15508445  0.42439142  0.83751946    -0.77700
C185        C  0.17891342  0.41321995  0.84980047     0.83100
N186        N  0.19214653  0.39044567  0.83699711    -0.79400
C187        C  0.41435232  0.19390805  0.84374218     0.80600
N188        N  0.39260181  0.20774479  0.82984151    -0.77700
C189        C  0.38185371  0.19709915  0.80458234     0.83000
N190        N  0.39334622  0.17239996  0.79331972    -0.77700
C191        C  0.41508433  0.15846379  0.80704752     0.83100
N192        N  0.42522814  0.16947624  0.83205295    -0.79400
C193        C  0.82838788  0.38455728  0.17171565     0.80600
N194        N  0.85281116  0.39645683  0.18303036    -0.77700
C195        C  0.86716056  0.41798436  0.16899232     0.83000
N196        N  0.85674564  0.42752388  0.14352224    -0.77700
C197        C  0.83248141  0.41605202  0.13189932     0.83100
N198        N  0.81841295  0.39460607  0.14615091    -0.79400
C199        C  0.64713391  0.33118166  0.89429394     0.80600
N200        N  0.65879539  0.35594770  0.90466277    -0.77700
C201        C  0.68413063  0.36630574  0.89444681     0.83000
N202        N  0.69813460  0.35151101  0.87342354    -0.77700
C203        C  0.68680643  0.32667651  0.86239427     0.83100
N204        N  0.66124100  0.31653672  0.87308297    -0.79400
O205        O  0.79753512  0.53121751  0.96237201    -0.57500
C206        C  0.78573109  0.47311023  0.03216876     0.75200
O207        O  0.71649049  0.53438712  0.01038562    -0.58600
C208        C  0.78098690  0.54509133  0.94572648     0.75100
C209        C  0.73348230  0.46357726  0.95492327     0.77500
Cd210      Cd  0.75808647  0.50829824  0.98996552     1.37500
O211        O  0.80033706  0.49002704  0.01628751    -0.57400
O212        O  0.76034692  0.46834615  0.95572078    -0.56300
C213        C  0.73145931  0.55030045  0.02691535     0.77500
O214        O  0.71777904  0.47986937  0.97033371    -0.58600
O215        O  0.75883457  0.47223195  0.02772653    -0.57100
O216        O  0.75422291  0.54225458  0.95020185    -0.57100
O217        O  0.75835420  0.54597453  0.02685559    -0.56200
C218        C  0.90737118  0.36737666  0.66681391     0.80600
N219        N  0.91824400  0.35569323  0.64246240    -0.77700
C220        C  0.90815982  0.33034605  0.63185595     0.83000
N221        N  0.88643876  0.31643692  0.64611081    -0.77700
C222        C  0.87496598  0.32797200  0.67068824     0.83100
N223        N  0.88585818  0.35333506  0.68099281    -0.79400
O224        O  0.98428358  0.48222017  0.69695367    -0.57500
C225        C  0.04221136  0.55438542  0.71490242     0.75200
O226        O  0.97461324  0.52940628  0.77721766    -0.58600
C227        C  0.96939954  0.46554951  0.71291007     0.75100
C228        C  0.04782346  0.47561053  0.76421476     0.77500
Cd229      Cd  0.00444266  0.51054770  0.73768193     1.37500
O230        O  0.02807269  0.53775876  0.69824742    -0.57400
O231        O  0.04318963  0.47505585  0.73741106    -0.56300
C232        C  0.95888609  0.54522077  0.76150038     0.77500
O233        O  0.03176856  0.49208605  0.77906837    -0.58600
O234        O  0.03863061  0.55046548  0.74158146    -0.57100
O235        O  0.97080846  0.47018425  0.73968383    -0.57100
O236        O  0.96480952  0.54542931  0.73490465    -0.56200
C237        C  0.10522764  0.68828938  0.63547516     0.80600
N238        N  0.12592179  0.70318298  0.64998404    -0.77700
C239        C  0.13730772  0.69254958  0.67476523     0.83000
N240        N  0.12718802  0.66687059  0.68524432    -0.77700
C241        C  0.10650324  0.65179418  0.67073339     0.83100
N242        N  0.09576380  0.66276993  0.64605517    -0.79400
C243        C  0.90724637  0.68558044  0.35605064     0.80600
N244        N  0.88695821  0.70004511  0.34067346    -0.77700
C245        C  0.87716049  0.68933080  0.31510335     0.83000
N246        N  0.88846337  0.66415382  0.30485978    -0.77700
C247        C  0.90878867  0.64961666  0.32007653     0.83100
N248        N  0.91793079  0.66053738  0.34550223    -0.79400
O249        O  0.03466199  0.80059292  0.47597388    -0.57500
C250        C  0.96129171  0.78514406  0.53087237     0.75200
O251        O  0.98454273  0.71842236  0.46900663    -0.58600
C252        C  0.05058998  0.78519886  0.45986564     0.75100
C253        C  0.04199802  0.73527846  0.53952230     0.77500
Cd254      Cd  0.00604824  0.75975610  0.49565348     1.37500
O255        O  0.97767295  0.80056156  0.51517962    -0.57400
O256        O  0.04003348  0.76218408  0.53544596    -0.56300
C257        C  0.96965422  0.73410424  0.45233956     0.77500
O258        O  0.02734141  0.71919480  0.52282821    -0.58600
O259        O  0.96631671  0.75830782  0.53082912    -0.57100
O260        O  0.04535376  0.75835480  0.45993311    -0.57100
O261        O  0.97172736  0.76109367  0.45610675    -0.56200
C262        C  0.64886969  0.91215959  0.30992239     0.80600
N263        N  0.66306221  0.89048559  0.29598509    -0.77700
C264        C  0.68672887  0.87795144  0.30806365     0.83000
N265        N  0.69615516  0.88774172  0.33411312    -0.77700
C266        C  0.68202088  0.90924940  0.34818102     0.83100
N267        N  0.65856734  0.92119225  0.33587463    -0.79400
O268        O  0.71140379  0.03103806  0.51370129    -0.57500
C269        C  0.72745705  0.97081420  0.44617249     0.75200
O270        O  0.79304321  0.03720495  0.46986621    -0.58600
C271        C  0.72697212  0.04678919  0.52985865     0.75100
C272        C  0.77690042  0.96447455  0.52535525     0.77500
Cd273      Cd  0.75242747  0.00834696  0.48861102     1.37500
O274        O  0.71151971  0.98528300  0.46312084    -0.57400
O275        O  0.75035558  0.97059659  0.52561064    -0.56300
C276        C  0.77821059  0.05172320  0.45215828     0.77500
O277        O  0.79265679  0.97946144  0.50864377    -0.58600
O278        O  0.75437762  0.97382389  0.44934426    -0.57100
O279        O  0.75395379  0.04479712  0.52642841    -0.57100
O280        O  0.75168512  0.04537700  0.45070797    -0.56200
C281        C  0.64911151  0.68402889  0.09008358     0.80600
N282        N  0.66049895  0.65959862  0.07905776    -0.77700
C283        C  0.68598718  0.64907750  0.08830251     0.83000
N284        N  0.70058056  0.66364207  0.10927148    -0.77700
C285        C  0.68957239  0.68843987  0.12082852     0.83100
N286        N  0.66384223  0.69853772  0.11090384    -0.79400
C287        C  0.32277412  0.65489717  0.89834668     0.80600
N288        N  0.30950228  0.66926941  0.87661208    -0.77700
C289        C  0.32093656  0.69434438  0.86606593     0.83000
N290        N  0.34582484  0.70495759  0.87770898    -0.77700
C291        C  0.35919631  0.69072118  0.89943960     0.83100
N292        N  0.34749751  0.66586330  0.90940395    -0.79400
O293        O  0.53415821  0.71342021  0.01468724    -0.57500
C294        C  0.46098177  0.73185144  0.95923700     0.75200
O295        O  0.48877391  0.79691721  0.02177954    -0.58600
C296        C  0.54876853  0.72885290  0.03203477     0.75100
C297        C  0.54478799  0.78029882  0.95301157     0.77500
Cd298      Cd  0.50657566  0.75483576  0.99495378     1.37500
O299        O  0.47660132  0.71535825  0.97438310    -0.57400
O300        O  0.54266321  0.75323849  0.95618936    -0.56300
C301        C  0.47137372  0.78274413  0.03750931     0.77500
O302        O  0.52936503  0.79566757  0.96956527    -0.58600
O303        O  0.46723060  0.75846606  0.96007368    -0.57100
O304        O  0.54278820  0.75543014  0.03267674    -0.57100
O305        O  0.47007325  0.75577480  0.03310500    -0.56200
C306        C  0.68195482  0.10870453  0.62761689     0.80600
N307        N  0.65798379  0.09683335  0.63942815    -0.77700
C308        C  0.64767125  0.10602055  0.66509286     0.83000
N309        N  0.66175530  0.12755024  0.67927669    -0.77700
C310        C  0.68574312  0.14003479  0.66766904     0.83100
N311        N  0.69584016  0.13031213  0.64186732    -0.79400
C312        C  0.33179615  0.91248223  0.63013199     0.80600
N313        N  0.31637554  0.89231437  0.64509767    -0.77700
C314        C  0.32583520  0.88267800  0.67116227     0.83000
N315        N  0.35074018  0.89380302  0.68214475    -0.77700
C316        C  0.36625610  0.91386825  0.66737464     0.83100
N317        N  0.35655649  0.92295709  0.64154819    -0.79400
O318        O  0.52540370  0.98113962  0.78414610    -0.57500
C319        C  0.47364090  0.05621434  0.76479962     0.75200
O320        O  0.53555457  0.02766679  0.70083444    -0.58600
C321        C  0.54154383  0.96460788  0.76943390     0.75100
C322        C  0.46361981  0.97411255  0.71701224     0.77500
Cd323      Cd  0.50787599  0.00921915  0.74228573     1.37500
O324        O  0.48792122  0.03975862  0.78123711    -0.57400
O325        O  0.46658309  0.97655802  0.74394250    -0.56300
C326        C  0.55279376  0.04267056  0.71596830     0.77500
O327        O  0.48163079  0.98778266  0.70151496    -0.58600
O328        O  0.47493354  0.05050818  0.73820866    -0.57100
O329        O  0.54241237  0.96928238  0.74265341    -0.57100
O330        O  0.54902396  0.04185658  0.74291757    -0.56200
C331        C  0.26795359  0.78871893  0.73238369     0.80600
N332        N  0.24397014  0.77627569  0.72078983    -0.77700
C333        C  0.23176452  0.75234401  0.73276991     0.83000
N334        N  0.24397921  0.74081015  0.75662461    -0.77700
C335        C  0.26799130  0.75269426  0.76857834     0.83100
N336        N  0.27987070  0.77663799  0.75625015    -0.79400
C337        C  0.74843411  0.74617657  0.21611429     0.80600
N338        N  0.77212342  0.73437618  0.22865343    -0.77700
C339        C  0.78367105  0.74605181  0.25301741     0.83000
N340        N  0.77102110  0.76982800  0.26483199    -0.77700
C341        C  0.74729442  0.78197230  0.25271081     0.83100
N342        N  0.73622198  0.76989249  0.22840639    -0.79400
C343        C  0.74203254  0.27051826  0.76436831     0.80600
N344        N  0.76602651  0.28265809  0.75228700    -0.77700
C345        C  0.77792033  0.27138091  0.72790203     0.83000
N346        N  0.76534034  0.24791886  0.71556687    -0.77700
C347        C  0.74148622  0.23546753  0.72724608     0.83100
N348        N  0.72996928  0.24692429  0.75161556    -0.79400
C349        C  0.43561723  0.95707497  0.67454375    -0.20900
C350        C  0.43996896  0.95675068  0.70437085    -0.09000
C351        C  0.42088724  0.94066010  0.72180257     0.29900
C352        C  0.39755522  0.92593884  0.70953726    -0.20900
C353        C  0.39259017  0.92715125  0.67978166    -0.09000
C354        C  0.41221804  0.94257661  0.66230937     0.29900
F355        F  0.40884190  0.94392982  0.63335342    -0.19500
H356        H  0.45003645  0.96910768  0.66060703     0.18200
H357        H  0.38286032  0.91430606  0.72352145     0.18300
F358        F  0.42434149  0.93952709  0.75076121    -0.19500
C359        C  0.32082995  0.84952645  0.71369931    -0.20900
C360        C  0.30966495  0.85998035  0.68758306    -0.09000
C361        C  0.28357400  0.84799037  0.67748884     0.29900
C362        C  0.26997851  0.82542624  0.69246836    -0.20900
C363        C  0.28175409  0.81422515  0.71800831    -0.09000
C364        C  0.30714429  0.82713772  0.72877824     0.29900
F365        F  0.31917236  0.81806663  0.75372072    -0.19500
H366        H  0.34057835  0.85840951  0.72247490     0.18200
H367        H  0.25028291  0.81644274  0.68367710     0.18300
F368        F  0.27115767  0.85771941  0.65299045    -0.19500
C369        C  0.61740942  0.09262421  0.70762798    -0.20900
C370        C  0.62216197  0.09151801  0.67782724    -0.09000
C371        C  0.60309846  0.07521268  0.66056873     0.29900
C372        C  0.58047431  0.05968318  0.67309451    -0.20900
C373        C  0.57623299  0.06010636  0.70297504    -0.09000
C374        C  0.59475032  0.07708517  0.72015454     0.29900
F375        F  0.59128743  0.07848143  0.74912171    -0.19500
H376        H  0.63168791  0.10496490  0.72141784     0.18200
H377        H  0.56637999  0.04709971  0.65933170     0.18300
F378        F  0.60612366  0.07428848  0.63152655    -0.19500
C379        C  0.73370352  0.20503142  0.68344701    -0.20900
C380        C  0.72758424  0.21049192  0.71258782    -0.09000
C381        C  0.70797000  0.19219374  0.72697239     0.29900
C382        C  0.69468503  0.16929459  0.71231030    -0.20900
C383        C  0.70060845  0.16403215  0.68305553    -0.09000
C384        C  0.72042187  0.18221707  0.66879224     0.29900
F385        F  0.72651611  0.17859856  0.64044639    -0.19500
H386        H  0.74849588  0.21880819  0.67166848     0.18200
H387        H  0.67976413  0.15558132  0.72400035     0.18300
F388        F  0.70185990  0.19604865  0.75528624    -0.19500
C389        C  0.40470206  0.68194189  0.92646106    -0.20900
C390        C  0.38630625  0.70155286  0.91259902    -0.09000
C391        C  0.39350925  0.73108250  0.91298563     0.29900
C392        C  0.41818422  0.74065114  0.92760269    -0.20900
C393        C  0.43619636  0.72104203  0.94204822    -0.09000
C394        C  0.42936984  0.69144932  0.94090940     0.29900
F395        F  0.44621668  0.67162000  0.95409311    -0.19500
H396        H  0.39987684  0.65902927  0.92633842     0.18200
H397        H  0.42281729  0.76359094  0.92815560     0.18300
F398        F  0.37611677  0.75085474  0.90042317    -0.19500
C399        C  0.32201727  0.73145894  0.82666923    -0.20900
C400        C  0.30689664  0.70973523  0.84165223    -0.09000
C401        C  0.27865848  0.70287531  0.83269180     0.29900
C402        C  0.26623084  0.71720593  0.80933889    -0.20900
C403        C  0.28145542  0.73871051  0.79414309    -0.09000
C404        C  0.30961298  0.74572492  0.80322863     0.29900
F405        F  0.32562907  0.76580680  0.78912247    -0.19500
H406        H  0.34381867  0.73720281  0.83277392     0.18200
H407        H  0.24449776  0.71130644  0.80314328     0.18300
F408        F  0.26277042  0.68247575  0.84650426    -0.19500
C409        C  0.61399411  0.72407123  0.08115962    -0.20900
C410        C  0.62149331  0.69488629  0.07823966    -0.09000
C411        C  0.60319646  0.67649897  0.06216353     0.29900
C412        C  0.57903558  0.68748931  0.04814140    -0.20900
C413        C  0.57238604  0.71693407  0.04981367    -0.09000
C414        C  0.58974987  0.73506528  0.06711674     0.29900
F415        F  0.58401467  0.76367213  0.06971072    -0.19500
H416        H  0.62750226  0.73869650  0.09343607     0.18200
H417        H  0.56591757  0.67297555  0.03532251     0.18300
F418        F  0.60873506  0.64785038  0.05955346    -0.19500
C419        C  0.73373198  0.69665785  0.15156378    -0.20900
C420        C  0.70523478  0.70410871  0.14434083    -0.09000
C421        C  0.69184876  0.72636787  0.16020187     0.29900
C422        C  0.70631938  0.74013259  0.18282453    -0.20900
C423        C  0.73450823  0.73225775  0.19055053    -0.09000
C424        C  0.74826876  0.71054019  0.17424932     0.29900
F425        F  0.77580784  0.70270580  0.18000229    -0.19500
H426        H  0.74488704  0.67994840  0.13966236     0.18200
H427        H  0.69497421  0.75668508  0.19476486     0.18300
F428        F  0.66439107  0.73453161  0.15453489    -0.19500
C429        C  0.73298676  0.08365552  0.56879502    -0.20900
C430        C  0.71468003  0.06581625  0.55234310    -0.09000
C431        C  0.68513121  0.06498115  0.55902047     0.29900
C432        C  0.67459442  0.08018696  0.58272770    -0.20900
C433        C  0.69314155  0.09665170  0.60025425    -0.09000
C434        C  0.72239322  0.09902438  0.59249338     0.29900
F435        F  0.74112694  0.11473904  0.60863295    -0.19500
H436        H  0.75580650  0.08495861  0.56393590     0.18200
H437        H  0.65187042  0.07832656  0.58785593     0.18300
F438        F  0.66652809  0.04849633  0.54350665    -0.19500
C439        C  0.72249590  0.92023961  0.38194332    -0.20900
C440        C  0.69298726  0.92143637  0.37556906    -0.09000
C441        C  0.67453890  0.93668776  0.39433544     0.29900
C442        C  0.68574394  0.95174584  0.41790394    -0.20900
C443        C  0.71549187  0.95202999  0.42324621    -0.09000
C444        C  0.73372935  0.93541861  0.40545190     0.29900
F445        F  0.76258137  0.93449381  0.41012855    -0.19500
H446        H  0.73715121  0.90861698  0.36796601     0.18200
H447        H  0.67116341  0.96394934  0.43145735     0.18300
F448        F  0.64567109  0.93751778  0.38969493    -0.19500
C449        C  0.72619497  0.84081329  0.30668015    -0.20900
C450        C  0.70240189  0.85385696  0.29323594    -0.09000
C451        C  0.69405642  0.84337907  0.26595559     0.29900
C452        C  0.70893351  0.82044186  0.25292833    -0.20900
C453        C  0.73255408  0.80722489  0.26653750    -0.09000
C454        C  0.74109429  0.81795913  0.29364599     0.29900
F455        F  0.76361800  0.80624656  0.30798629    -0.19500
H456        H  0.73336438  0.84816579  0.32760809     0.18200
H457        H  0.70172371  0.81293787  0.23206485     0.18300
F458        F  0.67146152  0.85507781  0.25171346    -0.19500
C459        C  0.92102443  0.72783586  0.38683087    -0.20900
C460        C  0.91981944  0.69782762  0.38276470    -0.09000
C461        C  0.93325304  0.67981529  0.40311587     0.29900
C462        C  0.94876687  0.69172162  0.42604142    -0.20900
C463        C  0.95120307  0.72176589  0.42930149    -0.09000
C464        C  0.93658569  0.73976268  0.40975458     0.29900
F465        F  0.93806526  0.76895301  0.41209473    -0.19500
H466        H  0.91096997  0.74219605  0.37152551     0.18200
H467        H  0.95935927  0.67734128  0.44095893     0.18300
F468        F  0.93169547  0.65062476  0.40076915    -0.19500
C469        C  0.84166595  0.69152872  0.27423209    -0.20900
C470        C  0.85427835  0.70474061  0.29847398    -0.09000
C471        C  0.84434459  0.73235149  0.30661293     0.29900
C472        C  0.82193570  0.74569193  0.29145994    -0.20900
C473        C  0.80879068  0.73213644  0.26767627    -0.09000
C474        C  0.81935571  0.70491774  0.25900214     0.29900
F475        F  0.80783249  0.69071008  0.23617841    -0.19500
H476        H  0.84874870  0.67041876  0.26715623     0.18200
H477        H  0.81473805  0.76673240  0.29862061     0.18300
F478        F  0.85614636  0.74666006  0.32924163    -0.19500
C479        C  0.09017980  0.73021722  0.60533113    -0.20900
C480        C  0.09156343  0.70024135  0.60936246    -0.09000
C481        C  0.07793876  0.68191296  0.58925362     0.29900
C482        C  0.06242057  0.69345332  0.56632623    -0.20900
C483        C  0.06009817  0.72343549  0.56287588    -0.09000
C484        C  0.07454420  0.74178698  0.58243448     0.29900
F485        F  0.07296882  0.77094369  0.58003150    -0.19500
H486        H  0.10034360  0.74480244  0.62051750     0.18200
H487        H  0.05184616  0.67882447  0.55146682     0.18300
F488        F  0.07950611  0.65276408  0.59168930    -0.19500
C489        C  0.19690860  0.74719136  0.69177840    -0.20900
C490        C  0.20646702  0.73792477  0.71889418    -0.09000
C491        C  0.19229554  0.71415884  0.73175671     0.29900
C492        C  0.16977577  0.69986263  0.71748078    -0.20900
C493        C  0.16064130  0.70875137  0.69008412    -0.09000
C494        C  0.17444600  0.73287820  0.67748800     0.29900
F495        F  0.16690291  0.74241100  0.65098714    -0.19500
H496        H  0.20723204  0.76529986  0.68116481     0.18200
H497        H  0.15957922  0.68160410  0.72795836     0.18300
F498        F  0.20015245  0.70443347  0.75809461    -0.19500
C499        C  0.06480703  0.58135967  0.67419316    -0.20900
C500        C  0.06147458  0.57755559  0.70391879    -0.09000
C501        C  0.07587274  0.59672722  0.72276642     0.29900
C502        C  0.09198558  0.61995520  0.71188724    -0.20900
C503        C  0.09385811  0.62465693  0.68214102    -0.09000
C504        C  0.08075925  0.60457010  0.66336379     0.29900
F505        F  0.08290746  0.60756068  0.63440618    -0.19500
H506        H  0.05443538  0.56673459  0.65918800     0.18200
H507        H  0.10182147  0.63504717  0.72679565     0.18300
F508        F  0.07359658  0.59376052  0.75172385    -0.19500
C509        C  0.92123340  0.39901213  0.70816933    -0.20900
C510        C  0.92046770  0.39416323  0.67840197    -0.09000
C511        C  0.93442712  0.41396514  0.65999550     0.29900
C512        C  0.94979071  0.43738694  0.67131980    -0.20900
C513        C  0.95156802  0.44163180  0.70115416    -0.09000
C514        C  0.93670638  0.42237748  0.71952854     0.29900
F515        F  0.93773081  0.42551065  0.74854309    -0.19500
H516        H  0.91079037  0.38405037  0.72278488     0.18200
H517        H  0.96066535  0.45199792  0.65667017     0.18300
F518        F  0.93334232  0.41068797  0.63098991    -0.19500
C519        C  0.84216877  0.28513017  0.67808176    -0.20900
C520        C  0.85073336  0.31317982  0.68611001    -0.09000
C521        C  0.83559348  0.32689556  0.70871392     0.29900
C522        C  0.81247684  0.31299267  0.72244492    -0.20900
C523        C  0.80359467  0.28517635  0.71406098    -0.09000
C524        C  0.81899454  0.27125667  0.69177504     0.29900
F525        F  0.81186168  0.24414115  0.68310348    -0.19500
H526        H  0.85338438  0.27379076  0.66103494     0.18200
H527        H  0.80113540  0.32439403  0.73936980     0.18300
F528        F  0.84252023  0.35407924  0.71730379    -0.19500
C529        C  0.73428493  0.58581051  0.06750610    -0.20900
C530        C  0.71864656  0.57354683  0.04459389    -0.09000
C531        C  0.69175458  0.58521293  0.03744583     0.29900
C532        C  0.68134165  0.60927549  0.05217720    -0.20900
C533        C  0.69729160  0.62232728  0.07455090    -0.09000
C534        C  0.72372275  0.60986247  0.08249667     0.29900
F535        F  0.73964824  0.62105798  0.10430705    -0.19500
H536        H  0.75500070  0.57702230  0.07355637     0.18200
H537        H  0.66084239  0.61801695  0.04543081     0.18300
F538        F  0.67606544  0.57432088  0.01528283    -0.19500
C539        C  0.69111339  0.43641984  0.93592774    -0.20900
C540        C  0.72112689  0.43993108  0.93731974    -0.09000
C541        C  0.73889304  0.42019440  0.92249450     0.29900
C542        C  0.72670587  0.39686069  0.90763046    -0.20900
C543        C  0.69671205  0.39272156  0.90732550    -0.09000
C544        C  0.67896589  0.41317603  0.92107207     0.29900
F545        F  0.64980023  0.41077930  0.92023555    -0.19500
H546        H  0.67692183  0.45150718  0.94670497     0.18200
H547        H  0.74083072  0.38146758  0.89720079     0.18300
F548        F  0.76804560  0.42285701  0.92297160    -0.19500
C549        C  0.68869617  0.28745938  0.82490823    -0.20900
C550        C  0.70187188  0.31126653  0.83844955    -0.09000
C551        C  0.72907931  0.32052042  0.82820817     0.29900
C552        C  0.74203282  0.30690241  0.80458539    -0.20900
C553        C  0.72848954  0.28362135  0.79051296    -0.09000
C554        C  0.70171260  0.27375931  0.80134222     0.29900
F555        F  0.68758191  0.25124465  0.78894702    -0.19500
H556        H  0.66791547  0.27959800  0.83222290     0.18200
H557        H  0.76272753  0.31489543  0.79716855     0.18300
F558        F  0.74332168  0.34289064  0.84075048    -0.19500
C559        C  0.78137103  0.43736062  0.07197412    -0.20900
C560        C  0.79883397  0.45593490  0.05548786    -0.09000
C561        C  0.82803234  0.45920246  0.06289037     0.29900
C562        C  0.83894752  0.44540477  0.08721704    -0.20900
C563        C  0.82112993  0.42791141  0.10456285    -0.09000
C564        C  0.79230027  0.42342452  0.09619007     0.29900
F565        F  0.77415329  0.40672914  0.11201367    -0.19500
H566        H  0.75885203  0.43423410  0.06664549     0.18200
H567        H  0.86134716  0.44893125  0.09277150     0.18300
F568        F  0.84587021  0.47644981  0.04727765    -0.19500
C569        C  0.44327331  0.11340672  0.81481442    -0.20900
C570        C  0.42783727  0.13120668  0.79583867    -0.09000
C571        C  0.42617779  0.12309859  0.76668355     0.29900
C572        C  0.44064316  0.09838719  0.75681895    -0.20900
C573        C  0.45680039  0.08116641  0.77579103    -0.09000
C574        C  0.45749155  0.08874693  0.80505530     0.29900
F575        F  0.47242968  0.07275056  0.82431041    -0.19500
H576        H  0.44465247  0.11868449  0.83746767     0.18200
H577        H  0.43958626  0.09301123  0.73416140     0.18300
F578        F  0.41156077  0.13948559  0.74750670    -0.19500
C579        C  0.08667011  0.43840207  0.76015086    -0.20900
C580        C  0.07116190  0.45822960  0.77714188    -0.09000
C581        C  0.07896222  0.46191740  0.80608384     0.29900
C582        C  0.10204942  0.44655170  0.81747116    -0.20900
C583        C  0.11810507  0.42719256  0.80040589    -0.09000
C584        C  0.10986757  0.42295896  0.77159286     0.29900
F585        F  0.12470377  0.40474994  0.75414935    -0.19500
H586        H  0.08111890  0.43512508  0.73776427     0.18200
H587        H  0.10758023  0.45025646  0.83978633     0.18300
F588        F  0.06488680  0.48095842  0.82330158    -0.19500
C589        C  0.44441374  0.83725344  0.09204987    -0.20900
C590        C  0.42260236  0.82161723  0.10643005    -0.09000
C591        C  0.41589941  0.79355203  0.09666735     0.29900
C592        C  0.43150303  0.78126266  0.07391376    -0.20900
C593        C  0.45383472  0.79669715  0.06023866    -0.09000
C594        C  0.45983378  0.82505178  0.06929008     0.29900
F595        F  0.48128508  0.84075703  0.05688734    -0.19500
H596        H  0.45008321  0.85896275  0.09873265     0.18200
H597        H  0.42630381  0.75943527  0.06721636     0.18300
F598        F  0.39489565  0.77758983  0.10945881    -0.19500
C599        C  0.83024925  0.10877599  0.42494933    -0.20900
C600        C  0.81319311  0.12442324  0.40545198    -0.09000
C601        C  0.78505501  0.11440883  0.39972970     0.29900
C602        C  0.77403873  0.09024890  0.41437147    -0.20900
C603        C  0.79086354  0.07547309  0.43474143    -0.09000
C604        C  0.81935106  0.08471744  0.43938552     0.29900
F605        F  0.83655444  0.07117574  0.45862984    -0.19500
H606        H  0.85213207  0.11547287  0.42966945     0.18200
H607        H  0.75206522  0.08347245  0.41018622     0.18300
F608        F  0.76782325  0.12834325  0.38080045    -0.19500
C609        C  0.08187305  0.82700657  0.44596822    -0.20900
C610        C  0.07451049  0.79779391  0.44251141    -0.09000
C611        C  0.09096152  0.78083049  0.42333309     0.29900
C612        C  0.11461144  0.79283357  0.40865779    -0.20900
C613        C  0.12256079  0.82187123  0.41288405    -0.09000
C614        C  0.10553214  0.83895229  0.43149695     0.29900
F615        F  0.11162777  0.86730728  0.43594491    -0.19500
H616        H  0.06959126  0.84064824  0.46040547     0.18200
H617        H  0.12714791  0.77912289  0.39451483     0.18300
F618        F  0.08453986  0.75252879  0.41898159    -0.19500
C619        C  0.17013926  0.32125422  0.26892900    -0.20900
C620        C  0.15773811  0.30886900  0.29362246    -0.09000
C621        C  0.16741896  0.28139810  0.30239254     0.29900
C622        C  0.18965371  0.26748759  0.28743687    -0.20900
C623        C  0.20267828  0.28035636  0.26329144    -0.09000
C624        C  0.19217507  0.30729931  0.25388338     0.29900
F625        F  0.20347906  0.32075574  0.23049949    -0.19500
H626        H  0.16312138  0.34215403  0.26133112     0.18200
H627        H  0.19688921  0.24667768  0.29507636     0.18300
F628        F  0.15576023  0.26791090  0.32558291    -0.19500
C629        C  0.94180890  0.33548695  0.59008047    -0.20900
C630        C  0.92213670  0.31818434  0.60563947    -0.09000
C631        C  0.91774956  0.28944490  0.59665943     0.29900
C632        C  0.93350273  0.27824674  0.57343299    -0.20900
C633        C  0.95371705  0.29542039  0.55853273    -0.09000
C634        C  0.95741101  0.32435238  0.56689772     0.29900
F635        F  0.97675840  0.34175345  0.55335492    -0.19500
H636        H  0.94565661  0.35776845  0.59612443     0.18200
H637        H  0.93008577  0.25591072  0.56731017     0.18300
F638        F  0.89896257  0.27184400  0.61068026    -0.19500
C639        C  0.06234767  0.32235693  0.41986353    -0.20900
C640        C  0.05800483  0.29240506  0.42159732    -0.09000
C641        C  0.07071522  0.27443814  0.40058978     0.29900
C642        C  0.08691648  0.28644226  0.37815342    -0.20900
C643        C  0.09044017  0.31647728  0.37599735    -0.09000
C644        C  0.07835644  0.33432970  0.39737098     0.29900
F645        F  0.08197558  0.36342306  0.39660517    -0.19500
H646        H  0.05311623  0.33666400  0.43584995     0.18200
H647        H  0.09580055  0.27225847  0.36185701     0.18300
F648        F  0.06694709  0.24535551  0.40118203    -0.19500
C649        C  0.92060198  0.23823783  0.42100089    -0.20900
C650        C  0.93597297  0.22001957  0.43961256    -0.09000
C651        C  0.92740116  0.19099919  0.44205995     0.29900
C652        C  0.90357488  0.18076400  0.42677127    -0.20900
C653        C  0.88766924  0.19909685  0.40864910    -0.09000
C654        C  0.89678107  0.22795619  0.40556395     0.29900
F655        F  0.88227421  0.24655456  0.38842686    -0.19500
H656        H  0.92681881  0.26068174  0.41860928     0.18200
H657        H  0.89735658  0.15836890  0.42954757     0.18300
F658        F  0.94142669  0.17262613  0.45985242    -0.19500
C659        C  0.95201091  0.58031496  0.31532649    -0.20900
C660        C  0.95533087  0.57708927  0.28549632    -0.09000
C661        C  0.94164821  0.59696029  0.26711345     0.29900
C662        C  0.92543985  0.61969233  0.27848789    -0.20900
C663        C  0.92286587  0.62343032  0.30832420    -0.09000
C664        C  0.93604137  0.60321949  0.32669412     0.29900
F665        F  0.93362898  0.60556806  0.35570364    -0.19500
H666        H  0.96210833  0.56529028  0.32995454     0.18200
H667        H  0.91584818  0.63507044  0.26388080     0.18300
F668        F  0.94463381  0.59511199  0.23811465    -0.19500
C669        C  0.06705587  0.43811388  0.31346058    -0.20900
C670        C  0.06370079  0.44188166  0.28371378    -0.09000
C671        C  0.07705670  0.42211535  0.26480829     0.29900
C672        C  0.09240017  0.39860168  0.27557134    -0.20900
C673        C  0.09451793  0.39406893  0.30529435    -0.09000
C674        C  0.08229386  0.41450052  0.32420717     0.29900
F675        F  0.08475894  0.41151765  0.35313369    -0.19500
H676        H  0.05739349  0.45315941  0.32848724     0.18200
H677        H  0.10145370  0.38315965  0.26055936     0.18300
F678        F  0.07438032  0.42471575  0.23586765    -0.19500
C679        C  0.90241716  0.42431416  0.20946630    -0.20900
C680        C  0.89341049  0.43166106  0.18158056    -0.09000
C681        C  0.90940221  0.45271042  0.16629293     0.29900
C682        C  0.93315661  0.46632874  0.17895124    -0.20900
C683        C  0.94155940  0.45956381  0.20708446    -0.09000
C684        C  0.92615318  0.43807162  0.22213698     0.29900
F685        F  0.93385713  0.43037537  0.24918520    -0.19500
H686        H  0.89082192  0.40816521  0.22177933     0.18200
H687        H  0.94462689  0.48273275  0.16684301     0.18300
F688        F  0.90210920  0.46056258  0.13917260    -0.19500
C689        C  0.28188257  0.16608527  0.29532911    -0.20900
C690        C  0.31113081  0.16145900  0.28856069    -0.09000
C691        C  0.32423343  0.17919293  0.26764807     0.29900
C692        C  0.30857670  0.20106695  0.25432670    -0.20900
C693        C  0.27955817  0.20614419  0.26151873    -0.09000
C694        C  0.26622137  0.18813401  0.28202719     0.29900
F695        F  0.23805758  0.19161570  0.28917842    -0.19500
H696        H  0.27102905  0.15267044  0.31107897     0.18200
H697        H  0.31960503  0.21458387  0.23878162     0.18300
F698        F  0.35246838  0.17618672  0.26056117    -0.19500
C699        C  0.28223481  0.94002575  0.57140475    -0.20900
C700        C  0.30113375  0.95765936  0.55536170    -0.09000
C701        C  0.33066858  0.95729281  0.56199565     0.29900
C702        C  0.34054656  0.94127015  0.58542383    -0.20900
C703        C  0.32135180  0.92507287  0.60266459    -0.09000
C704        C  0.29216528  0.92373723  0.59465804     0.29900
F705        F  0.27286619  0.90793728  0.61003596    -0.19500
H706        H  0.25944124  0.93938702  0.56644043     0.18200
H707        H  0.36328870  0.94227142  0.59055744     0.18300
F708        F  0.34992915  0.97313613  0.54657429    -0.19500
C709        C  0.28178171  0.08153800  0.40268958    -0.20900
C710        C  0.29994762  0.06342530  0.41871704    -0.09000
C711        C  0.32867843  0.06001033  0.40974987     0.29900
C712        C  0.33879904  0.07411772  0.38520238    -0.20900
C713        C  0.32065931  0.09203489  0.36891868    -0.09000
C714        C  0.29191538  0.09570999  0.37805167     0.29900
F715        F  0.27333836  0.11240123  0.36298632    -0.19500
H716        H  0.25949434  0.08448204  0.40901219     0.18200
H717        H  0.36103001  0.07077386  0.37891542     0.18300
F718        F  0.34698502  0.04259969  0.42430524    -0.19500
C719        C  0.23876220  0.92867246  0.42051443    -0.20900
C720        C  0.22214044  0.94509816  0.43986528    -0.09000
C721        C  0.19307735  0.93745431  0.44415270     0.29900
C722        C  0.18132511  0.91342718  0.43006224    -0.20900
C723        C  0.19808825  0.89650719  0.41119660    -0.09000
C724        C  0.22694411  0.90474246  0.40622173     0.29900
F725        F  0.24413946  0.88922045  0.38835674    -0.19500
H726        H  0.26119380  0.93407864  0.41671542     0.18200
H727        H  0.15899083  0.90792328  0.43423224     0.18300
F728        F  0.17610406  0.95268871  0.46249258    -0.19500
C729        C  0.59592642  0.94394376  0.25628728    -0.20900
C730        C  0.57737192  0.95957891  0.27455243    -0.09000
C731        C  0.58183673  0.95829602  0.30440777     0.29900
C732        C  0.60461280  0.94218945  0.31552587    -0.20900
C733        C  0.62351496  0.92692746  0.29729009    -0.09000
C734        C  0.61875513  0.92777346  0.26744771     0.29900
F735        F  0.63676584  0.91404774  0.24893285    -0.19500
H736        H  0.59310155  0.94461247  0.23318277     0.18200
H737        H  0.60758287  0.94191148  0.33862204     0.18300
F738        F  0.56448984  0.97284729  0.32295219    -0.19500
C739        C  0.40388100  0.10133225  0.26742288    -0.20900
C740        C  0.39761580  0.09952763  0.29692928    -0.09000
C741        C  0.41711788  0.08503086  0.31501210     0.29900
C742        C  0.44090200  0.07066119  0.30340905    -0.20900
C743        C  0.44593062  0.07054498  0.27363255    -0.09000
C744        C  0.42776363  0.08701005  0.25580658     0.29900
F745        F  0.43228571  0.08838799  0.22698465    -0.19500
H746        H  0.38950551  0.11263931  0.25304630     0.18200
H747        H  0.45486284  0.05878141  0.31773219     0.18300
F748        F  0.41293439  0.08414625  0.34390988    -0.19500
C749        C  0.44130884  0.91391692  0.16095520    -0.20900
C750        C  0.42276221  0.89799308  0.17908185    -0.09000
C751        C  0.41963039  0.90702260  0.20785672     0.29900
C752        C  0.43569283  0.93058650  0.21830251    -0.20900
C753        C  0.45494781  0.94579990  0.20029665    -0.09000
C754        C  0.45714580  0.93745835  0.17129653     0.29900
F755        F  0.47529981  0.95138928  0.15299496    -0.19500
H756        H  0.44406129  0.90785846  0.13860442     0.18200
H757        H  0.43340604  0.93662165  0.24071025     0.18300
F758        F  0.40198679  0.89254252  0.22621869    -0.19500
C759        C  0.31442060  0.28498319  0.15071588    -0.20900
C760        C  0.30423077  0.31207672  0.14177126    -0.09000
C761        C  0.27971666  0.32358226  0.15554291     0.29900
C762        C  0.26635004  0.30856767  0.17800251    -0.20900
C763        C  0.27695920  0.28178743  0.18737490    -0.09000
C764        C  0.30105743  0.26997241  0.17314744     0.29900
F765        F  0.31201821  0.24400070  0.18086433    -0.19500
H766        H  0.33303390  0.27530832  0.14048747     0.18200
H767        H  0.24786959  0.31831997  0.18838384     0.18300
F768        F  0.26884612  0.34960399  0.14789907    -0.19500
C769        C  0.27209449  0.59301832  0.91882783    -0.20900
C770        C  0.28934596  0.57751858  0.93824753    -0.09000
C771        C  0.31779800  0.58679298  0.94299106     0.29900
C772        C  0.32838192  0.61141490  0.92932503    -0.20900
C773        C  0.31101787  0.62757749  0.91055065    -0.09000
C774        C  0.28275928  0.61778464  0.90502196     0.29900
F775        F  0.26506219  0.63251608  0.88715804    -0.19500
H776        H  0.25006750  0.58632964  0.91477340     0.18200
H777        H  0.35029864  0.61805402  0.93397175     0.18300
F778        F  0.33522274  0.57276962  0.96169079    -0.19500
C779        C  0.27226748  0.42628822  0.06230143    -0.20900
C780        C  0.29032649  0.44304174  0.04451944    -0.09000
C781        C  0.31976846  0.43621043  0.04286552     0.29900
C782        C  0.33047786  0.41232070  0.05755671    -0.20900
C783        C  0.31223687  0.39476500  0.07438777    -0.09000
C784        C  0.28302505  0.40245782  0.07719383     0.29900
F785        F  0.26451106  0.38644167  0.09331192    -0.19500
H786        H  0.24953354  0.43120310  0.06418683     0.18200
H787        H  0.35315438  0.40731023  0.05528073     0.18300
F788        F  0.33817206  0.45204769  0.02644769    -0.19500
C789        C  0.18544145  0.45988444  0.91666666    -0.20900
C790        C  0.21417838  0.45537446  0.92460937    -0.09000
C791        C  0.23083389  0.43543355  0.90881040     0.29900
C792        C  0.21903866  0.42116171  0.88499291    -0.20900
C793        C  0.19057031  0.42657790  0.87637589    -0.09000
C794        C  0.17371945  0.44582711  0.89284993     0.29900
F795        F  0.14589069  0.45143023  0.88597172    -0.19500
H796        H  0.17209847  0.47497446  0.92848266     0.18200
H797        H  0.23249856  0.40644520  0.87285177     0.18300
F798        F  0.25863560  0.43002020  0.91597608    -0.19500
C799        C  0.58775092  0.28107685  0.92114398    -0.20900
C800        C  0.57101598  0.30004990  0.93793276    -0.09000
C801        C  0.57828189  0.32953331  0.93831056     0.29900
C802        C  0.60242506  0.33945308  0.92318754    -0.20900
C803        C  0.61985680  0.32034138  0.90725115    -0.09000
C804        C  0.61186627  0.29103517  0.90587997     0.29900
F805        F  0.62799944  0.27170163  0.89098196    -0.19500
H806        H  0.58258887  0.25825313  0.92033752     0.18200
H807        H  0.60778288  0.36220975  0.92445908     0.18300
F808        F  0.56269975  0.34871590  0.95399347    -0.19500
C809        C  0.41869251  0.28122834  0.06266830    -0.20900
C810        C  0.43712321  0.30014713  0.04760678    -0.09000
C811        C  0.43145172  0.32993461  0.04842764     0.29900
C812        C  0.40688424  0.34023188  0.06242022    -0.20900
C813        C  0.38761286  0.32119243  0.07615784    -0.09000
C814        C  0.39416707  0.29155726  0.07683671     0.29900
F815        F  0.37615643  0.27231075  0.08971995    -0.19500
H816        H  0.42264171  0.25819328  0.06260482     0.18200
H817        H  0.40266298  0.36321569  0.06201074     0.18300
F818        F  0.44910140  0.34912536  0.03501832    -0.19500
C819        C  0.45844461  0.19889182  0.91262381    -0.20900
C820        C  0.45204488  0.22675164  0.92247505    -0.09000
C821        C  0.43183240  0.24331279  0.90710379     0.29900
C822        C  0.41914333  0.23238668  0.88193315    -0.20900
C823        C  0.42641522  0.20485228  0.87144490    -0.09000
C824        C  0.44600354  0.18803753  0.88749311     0.29900
F825        F  0.45363845  0.16108844  0.87893825    -0.19500
H826        H  0.47385824  0.18564085  0.92396148     0.18200
H827        H  0.40406962  0.24579169  0.87033796     0.18300
F828        F  0.42454462  0.27021234  0.91611925    -0.19500
C829        C  0.82434149  0.34904812  0.21241933    -0.20900
C830        C  0.81293595  0.36067185  0.18696499    -0.09000
C831        C  0.78698091  0.34884731  0.17625107     0.29900
C832        C  0.77350277  0.32567570  0.19021396    -0.20900
C833        C  0.78523809  0.31359140  0.21530031    -0.09000
C834        C  0.81076600  0.32591875  0.22646961     0.29900
F835        F  0.82301743  0.31557392  0.25078473    -0.19500
H836        H  0.84409742  0.35764685  0.22145425     0.18200
H837        H  0.75381503  0.31704840  0.18105872     0.18300
F838        F  0.77443635  0.35940684  0.15216782    -0.19500
C839        C  0.77191306  0.21049246  0.29976048    -0.20900
C840        C  0.78268829  0.23739304  0.29051458    -0.09000
C841        C  0.80606692  0.24962963  0.30570268     0.29900
C842        C  0.81849070  0.23494820  0.32890843    -0.20900
C843        C  0.80810096  0.20770863  0.33769376    -0.09000
C844        C  0.78434798  0.19580591  0.32287071     0.29900
F845        F  0.77330855  0.16962551  0.33011755    -0.19500
H846        H  0.75398841  0.20033490  0.28875388     0.18200
H847        H  0.83653628  0.24495958  0.33986279     0.18300
F848        F  0.81719600  0.27570522  0.29821323    -0.19500
C849        C  0.60033603  0.11905021  0.20344837    -0.20900
C850        C  0.59821825  0.12543957  0.17405248    -0.09000
C851        C  0.58207668  0.10671890  0.15623334     0.29900
C852        C  0.56681406  0.08347709  0.16799718    -0.20900
C853        C  0.56739075  0.07819639  0.19767561    -0.09000
C854        C  0.58508003  0.09573666  0.21522959     0.29900
F855        F  0.58692703  0.09109605  0.24397394    -0.19500
H856        H  0.61271314  0.13290884  0.21763851     0.18200
H857        H  0.55386915  0.07006633  0.15388675     0.18300
F858        F  0.58057351  0.11105252  0.12742511    -0.19500
C859        C  0.59587985  0.23181589  0.09487895    -0.20900
C860        C  0.59071300  0.20330995  0.10397464    -0.09000
C861        C  0.56957133  0.18684071  0.08928430     0.29900
C862        C  0.55403543  0.19867638  0.06664851    -0.20900
C863        C  0.55868806  0.22722552  0.05800643    -0.09000
C864        C  0.57998699  0.24376285  0.07220972     0.29900
F865        F  0.58537272  0.27150160  0.06440924    -0.19500
H866        H  0.61186872  0.24508367  0.10560998     0.18200
H867        H  0.53778189  0.18546811  0.05622133     0.18300
F868        F  0.56327947  0.15924253  0.09681064    -0.19500
C869        C  0.69736377  0.25029686  0.18837276    -0.20900
C870        C  0.71000988  0.23736153  0.21264153    -0.09000
C871        C  0.69904409  0.21044375  0.22182173     0.29900
C872        C  0.67655535  0.19689633  0.20691069    -0.20900
C873        C  0.66414855  0.20954966  0.18240247    -0.09000
C874        C  0.67479619  0.23667627  0.17340175     0.29900
F875        F  0.66373587  0.25008718  0.15000725    -0.19500
H876        H  0.70509747  0.27099805  0.18069450     0.18200
H877        H  0.66902693  0.17614152  0.21463712     0.18300
F878        F  0.71023485  0.19669483  0.24495940    -0.19500
C879        C  0.34611473  0.23788866  0.80098711    -0.20900
C880        C  0.35680769  0.21148770  0.79033790    -0.09000
C881        C  0.34249627  0.19863956  0.76677959     0.29900
C882        C  0.31770815  0.21122016  0.75523751    -0.20900
C883        C  0.30633781  0.23700391  0.76656894    -0.09000
C884        C  0.32132900  0.25057453  0.78929437     0.29900
F885        F  0.31209415  0.27601428  0.80047437    -0.19500
H886        H  0.35673843  0.24869439  0.81874242     0.18200
H887        H  0.30707445  0.20023012  0.73760627     0.18300
F888        F  0.35182242  0.17344196  0.75514430    -0.19500
C889        C  0.23618913  0.31927563  0.79601626    -0.20900
C890        C  0.22427731  0.30597551  0.77154150    -0.09000
C891        C  0.19791577  0.31671663  0.76087301     0.29900
C892        C  0.18430443  0.34016994  0.77419257    -0.20900
C893        C  0.19633243  0.35359835  0.79853506    -0.09000
C894        C  0.22252283  0.34266870  0.80939358     0.29900
F895        F  0.23528141  0.35456184  0.83286368    -0.19500
H896        H  0.25629104  0.31163531  0.80493162     0.18200
H897        H  0.16417971  0.34778963  0.76530537     0.18300
F898        F  0.18506399  0.30476047  0.73748743    -0.19500
C899        C  0.08874737  0.23764485  0.56258340    -0.20900
C900        C  0.07397134  0.21966820  0.54304360    -0.09000
C901        C  0.08279925  0.19087424  0.53990232     0.29900
C902        C  0.10651755  0.18072559  0.55518179    -0.20900
C903        C  0.12201584  0.19890569  0.57400674    -0.09000
C904        C  0.11242176  0.22740430  0.57808622     0.29900
F905        F  0.12646786  0.24576880  0.59607041    -0.19500
H906        H  0.08222995  0.25988382  0.56557627     0.18200
H907        H  0.11307574  0.15857199  0.55174926     0.18300
F908        F  0.06931114  0.17275247  0.52124139    -0.19500
C909        C  0.19631015  0.08771965  0.53896850    -0.20900
C910        C  0.22589175  0.08228833  0.54155475    -0.09000
C911        C  0.24251013  0.10007896  0.55985399     0.29900
C912        C  0.22961703  0.12292797  0.57490873    -0.20900
C913        C  0.20008671  0.12870474  0.57174291    -0.09000
C914        C  0.18351466  0.11058836  0.55370008     0.29900
F915        F  0.15479889  0.11477788  0.55016110    -0.19500
H916        H  0.18295119  0.07441901  0.52513955     0.18200
H917        H  0.24292206  0.13653430  0.58849002     0.18300
F918        F  0.27123884  0.09571381  0.56299312    -0.19500
C919        C  0.20250311  0.24356401  0.68285014    -0.20900
C920        C  0.22722135  0.23141009  0.69536024    -0.09000
C921        C  0.23836130  0.20582597  0.68324132     0.29900
C922        C  0.22516486  0.19307958  0.65927293    -0.20900
C923        C  0.20046145  0.20525214  0.64672663    -0.09000
C924        C  0.18923767  0.23076490  0.65896315     0.29900
F925        F  0.16547081  0.24360997  0.64797503    -0.19500
H926        H  0.19328359  0.26319742  0.69150474     0.18200
H927        H  0.23435051  0.17341088  0.65065539     0.18300
F928        F  0.26181839  0.19273894  0.69460827    -0.19500
C929        C  0.34287491  0.82529555  0.21362279    -0.20900
C930        C  0.34944210  0.81887674  0.18475489    -0.09000
C931        C  0.33195230  0.79853238  0.17023424     0.29900
C932        C  0.30866234  0.78520211  0.18429862    -0.20900
C933        C  0.30203772  0.79169738  0.21314193    -0.09000
C934        C  0.31961315  0.81189772  0.22770536     0.29900
F935        F  0.31482913  0.81834841  0.25579492    -0.19500
H936        H  0.35600554  0.84054202  0.22555066     0.18200
H937        H  0.29554132  0.76995315  0.17235864     0.18300
F938        F  0.33683774  0.79183255  0.14220702    -0.19500
C939        C  0.22336385  0.83095134  0.32439500    -0.20900
C940        C  0.20083172  0.81691731  0.33924077    -0.09000
C941        C  0.19228360  0.78925573  0.32956726     0.29900
C942        C  0.20566082  0.77644891  0.30559069    -0.20900
C943        C  0.22800300  0.79063983  0.29056332    -0.09000
C944        C  0.23678554  0.81814526  0.30052097     0.29900
F945        F  0.25812974  0.83310172  0.28709529    -0.19500
H946        H  0.23060203  0.85219144  0.33108143     0.18200
H947        H  0.19842077  0.75523849  0.29882201     0.18300
F948        F  0.17115349  0.77428491  0.34330998    -0.19500
C949        C  0.11443287  0.59969146  0.21216061    -0.20900
C950        C  0.12160857  0.59479676  0.18316289    -0.09000
C951        C  0.10447854  0.57533791  0.16708958     0.29900
C952        C  0.08186121  0.56032247  0.18004405    -0.20900
C953        C  0.07553148  0.56417779  0.20925632    -0.09000
C954        C  0.09170284  0.58449078  0.22518458     0.29900
F955        F  0.08603758  0.58929425  0.25344336    -0.19500
H956        H  0.12698465  0.61460304  0.22508335     0.18200
H957        H  0.06962623  0.54510421  0.16715840     0.18300
F958        F  0.10956178  0.57030319  0.13881480    -0.19500
C959        C  0.22241345  0.59906853  0.09720822    -0.20900
C960        C  0.19384471  0.59461979  0.10634868    -0.09000
C961        C  0.17619716  0.57562267  0.09016958     0.29900
C962        C  0.18724615  0.56067761  0.06655038    -0.20900
C963        C  0.21604797  0.56416630  0.05820701    -0.09000
C964        C  0.23347360  0.58402839  0.07341510     0.29900
F965        F  0.26134043  0.58864195  0.06565202    -0.19500
H966        H  0.23650189  0.61359277  0.10893499     0.18200
H967        H  0.17325656  0.54578899  0.05513958     0.18300
F968        F  0.14815952  0.57103605  0.09708969    -0.19500
C969        C  0.19033004  0.67732088  0.21266588    -0.20900
C970        C  0.20253862  0.66509952  0.18768256    -0.09000
C971        C  0.22883381  0.67672371  0.17755208     0.29900
C972        C  0.24168447  0.70047855  0.19142883    -0.20900
C973        C  0.22889541  0.71333429  0.21582600    -0.09000
C974        C  0.20320823  0.70095149  0.22658798     0.29900
F975        F  0.18999228  0.71186953  0.25028441    -0.19500
H976        H  0.17034024  0.66888411  0.22139886     0.18200
H977        H  0.26163009  0.70903209  0.18270507     0.18300
F978        F  0.24217789  0.66544824  0.15409085    -0.19500
C979        C  0.54968769  0.92995886  0.80962039    -0.20900
C980        C  0.55785089  0.94052131  0.78255803    -0.09000
C981        C  0.58057981  0.92684937  0.76774246     0.29900
C982        C  0.59441448  0.90288447  0.77970766    -0.20900
C983        C  0.58577802  0.89176003  0.80653615    -0.09000
C984        C  0.56319271  0.90581445  0.82144148     0.29900
F985        F  0.55349527  0.89605762  0.84722461    -0.19500
H986        H  0.53214636  0.93991359  0.82138596     0.18200
H987        H  0.61170067  0.89281802  0.76767923     0.18300
F988        F  0.58948687  0.93656058  0.74164723    -0.19500
C989        C  0.59392165  0.78840020  0.88799567    -0.20900
C990        C  0.59165945  0.81813368  0.88249154    -0.09000
C991        C  0.57697196  0.83563639  0.90249813     0.29900
C992        C  0.56295585  0.82326954  0.92611028    -0.20900
C993        C  0.56332554  0.79327854  0.93040807    -0.09000
C994        C  0.57996578  0.77601725  0.91171713     0.29900
F995        F  0.58201998  0.74706443  0.91568933    -0.19500
H996        H  0.60547938  0.77445324  0.87325505     0.18200
H997        H  0.55096595  0.83718166  0.94053354     0.18300
F998        F  0.57574753  0.86470535  0.89911282    -0.19500
C999        C  0.66533423  0.82157509  0.77090417    -0.20900
C1000       C  0.65649021  0.81168723  0.79814906    -0.09000
C1001       C  0.67071892  0.78756356  0.80991351     0.29900
C1002       C  0.69329120  0.77423974  0.79499183    -0.20900
C1003       C  0.70253097  0.78445752  0.76801623    -0.09000
C1004       C  0.68801930  0.80826330  0.75600630     0.29900
F1005       F  0.69559802  0.81884349  0.72984882    -0.19500
H1006       H  0.65481825  0.83987270  0.76105550     0.18200
H1007       H  0.70384889  0.75603013  0.80495333     0.18300
F1008       F  0.66332006  0.77689713  0.83609766    -0.19500
C1009       C  0.89410548  0.59510319  0.76813556    -0.20900
C1010       C  0.88535568  0.59001029  0.79666452    -0.09000
C1011       C  0.90212845  0.57132544  0.81375429     0.29900
C1012       C  0.92625008  0.55757066  0.80225514    -0.20900
C1013       C  0.93442784  0.56188999  0.77354773    -0.09000
C1014       C  0.91832935  0.58119121  0.75661016     0.29900
F1015       F  0.92570315  0.58643405  0.72883043    -0.19500
H1016       H  0.88185255  0.60939470  0.75446496     0.18200
H1017       H  0.93825308  0.54297731  0.81584269     0.18300
F1018       F  0.89527370  0.56590177  0.84163228    -0.19500
C1019       C  0.83143848  0.58018065  0.89177248    -0.20900
C1020       C  0.81189772  0.59229260  0.87216641    -0.09000
C1021       C  0.78222991  0.59078378  0.87824656     0.29900
C1022       C  0.77243660  0.57622187  0.90275840    -0.20900
C1023       C  0.79196441  0.56298466  0.92168104    -0.09000
C1024       C  0.82168207  0.56574250  0.91629331     0.29900
F1025       F  0.84137067  0.55382157  0.93418912    -0.19500
H1026       H  0.85443781  0.58135303  0.88780958     0.18200
H1027       H  0.74941903  0.57452327  0.90640553     0.18300
F1028       F  0.76258964  0.60184240  0.85975538    -0.19500
C1029       C  0.80008229  0.69448320  0.75110996    -0.20900
C1030       C  0.77470769  0.70596801  0.76316826    -0.09000
C1031       C  0.76270450  0.69207292  0.78740808     0.29900
C1032       C  0.77660052  0.66845490  0.79990950    -0.20900
C1033       C  0.80270180  0.65782118  0.78864707    -0.09000
C1034       C  0.81387007  0.67072184  0.76349793     0.29900
F1035       F  0.83846830  0.66094818  0.75104693    -0.19500
H1036       H  0.80975423  0.70423473  0.73224399     0.18200
H1037       H  0.76700407  0.65881089  0.81887204     0.18300
F1038       F  0.73773371  0.70138664  0.79947340    -0.19500
C1039       C  0.78178462  0.89801995  0.57329208    -0.20900
C1040       C  0.81158300  0.89278551  0.57324709    -0.09000
C1041       C  0.82991324  0.91237078  0.55877178     0.29900
C1042       C  0.81852512  0.93591427  0.54391076    -0.20900
C1043       C  0.78867557  0.94061527  0.54308117    -0.09000
C1044       C  0.77036282  0.92156502  0.55831517     0.29900
F1045       F  0.74132249  0.92501904  0.55802336    -0.19500
H1046       H  0.76715937  0.88331129  0.58412976     0.18200
H1047       H  0.83316391  0.95030388  0.53267728     0.18300
F1048       F  0.85895018  0.90886848  0.55891161    -0.19500
C1049       C  0.90357775  0.83666366  0.55731769    -0.20900
C1050       C  0.88696288  0.81900954  0.57568436    -0.09000
C1051       C  0.89634951  0.79057157  0.58075941     0.29900
C1052       C  0.92101736  0.77998147  0.56679285    -0.20900
C1053       C  0.93693480  0.79745517  0.54766032    -0.09000
C1054       C  0.92818299  0.82614933  0.54351911     0.29900
F1055       F  0.94272266  0.84389134  0.52530119    -0.19500
H1056       H  0.89728375  0.85873291  0.55309251     0.18200
H1057       H  0.92731598  0.75781277  0.57051526     0.18300
F1058       F  0.88127011  0.77259900  0.59831243    -0.19500
C1059       C  0.81185128  0.78440983  0.65163344    -0.20900
C1060       C  0.80415956  0.81266524  0.64379763    -0.09000
C1061       C  0.78200583  0.82639182  0.65950320     0.29900
C1062       C  0.76858777  0.81238420  0.68268222    -0.20900
C1063       C  0.77664489  0.78431380  0.69083456    -0.09000
C1064       C  0.79827399  0.77031544  0.67465552     0.29900
F1065       F  0.80635995  0.74289358  0.68081603    -0.19500
H1066       H  0.82847218  0.77301596  0.63985436     0.18200
H1067       H  0.75204602  0.82383608  0.69451517     0.18300
F1068       F  0.77359585  0.85364248  0.65304109    -0.19500
loop_ 
_geom_bond_atom_site_label_1 
_geom_bond_atom_site_label_2 
_geom_bond_distance 
_geom_bond_site_symmetry_2 
_ccdc_geom_bond_type 
C1            N2   1.364       .  A
C1            N6   1.366       .  A
C1         C1060   1.495       .  S
N2            C3   1.361       .  A
C3            N4   1.355       .  A
C3         C1040   1.487       .  S
N4            C5   1.356       .  A
C5            N6   1.362       .  A
C5         C1050   1.491       .  S
C7            N8   1.359       .  A
C7           N12   1.352       .  A
C7         C1020   1.480       .  S
N8            C9   1.363       .  A
C9           N10   1.365       .  A
C9         C1033   1.494       .  S
N10          C11   1.363       .  A
C11          N12   1.353       .  A
C11        C1010   1.489       .  S
C13          N14   1.365       .  A
C13          N18   1.360       .  A
C13        C1000   1.495       .  S
N14          C15   1.364       .  A
C15          N16   1.357       .  A
C15         C983   1.494       .  S
N16          C17   1.356       .  A
C17          N18   1.358       .  A
C17         C990   1.483       .  S
C19          N20   1.361       .  A
C19          N24   1.362       .  A
C19        C1003   1.494       .  S
N20          C21   1.362       .  A
C21          N22   1.360       .  A
C21        C1063   1.494       .  S
N22          C23   1.360       .  A
C23          N24   1.360       .  A
C23        C1030   1.495       .  S
C25          N26   1.365       .  A
C25          N30   1.368       .  A
C25         C970   1.500       .  S
N26          C27   1.360       .  A
C27          N28   1.352       .  A
C27         C950   1.487       .  S
N28          C29   1.353       .  A
C29          N30   1.365       .  A
C29         C960   1.491       .  S
C31          N32   1.362       .  A
C31          N36   1.361       .  A
C31         C933   1.495       .  S
N32          C33   1.362       .  A
C33          N34   1.364       .  A
C33         C973   1.500       .  S
N34          C35   1.364       .  A
C35          N36   1.362       .  A
C35         C943   1.502       .  S
C37          N38   1.365       .  A
C37          N42   1.365       .  A
C37         C923   1.494       .  S
N38          C39   1.360       .  A
C39          N40   1.352       .  A
C39         C913   1.485       .  S
N40          C41   1.352       .  A
C41          N42   1.361       .  A
C41         C903   1.485       .  S
C43          N44   1.359       .  A
C43          N48   1.365       .  A
C43         C890   1.496       .  S
N44          C45   1.358       .  A
C45          N46   1.359       .  A
C45         C920   1.493       .  S
N46          C47   1.362       .  A
C47          N48   1.364       .  A
C47         C883   1.498       .  S
C49          N50   1.353       .  A
C49          N54   1.365       .  A
C49         C860   1.492       .  S
N50          C51   1.350       .  A
C51          N52   1.359       .  A
C51         C850   1.484       .  S
N52          C53   1.365       .  A
C53          N54   1.368       .  A
C53         C873   1.498       .  S
C55          N56   1.360       .  A
C55          N60   1.360       .  A
C55         C870   1.497       .  S
N56          C57   1.363       .  A
C57          N58   1.362       .  A
C57         C833   1.495       .  S
N58          C59   1.361       .  A
C59          N60   1.361       .  A
C59         C840   1.497       .  S
O61          C64   1.271       .  A
O61         Cd66   2.474       .  S
C62         C810   1.481       .  S
C62          O71   1.266       .  A
C62          O67   1.270       .  A
O63          C69   1.271       .  A
O63         Cd66   2.476       .  S
C64         C800   1.482       .  S
C64          O72   1.265       .  A
C65         C863   1.482       .  S
C65          O70   1.271       .  A
C65          O68   1.265       .  A
Cd66         O73   2.457       .  S
Cd66         O72   2.427       .  S
Cd66         O71   2.439   1_556  S
Cd66         O67   2.465   1_556  S
Cd66         O70   2.458   1_556  S
Cd66         O68   2.449   1_556  S
C69         C820   1.485       .  S
C69          O73   1.265       .  A
O74          C77   1.271       .  A
O74         Cd79   2.470   1_554  S
C75         C790   1.479       .  S
C75          O84   1.265       .  A
C75          O80   1.270       .  A
O76          C82   1.270       .  A
O76         Cd79   2.451       .  S
C77         C963   1.482       .  S
C77          O85   1.264       .  A
C78         C780   1.481       .  S
C78          O83   1.270       .  A
C78          O81   1.265       .  A
Cd79         O86   2.451       .  S
Cd79         O85   2.439   1_556  S
Cd79         O84   2.442       .  S
Cd79         O80   2.455       .  S
Cd79         O83   2.464   1_556  S
Cd79         O81   2.436   1_556  S
C82         C770   1.481       .  S
C82          O86   1.265       .  A
C87          N88   1.360       .  A
C87          N92   1.356       .  A
C87         C783   1.484       .  S
N88          C89   1.362       .  A
C89          N90   1.361       .  A
C89         C760   1.487       .  S
N90          C91   1.357       .  A
C91          N92   1.355       .  A
C91         C813   1.480       .  S
O93          C96   1.271       .  A
O93         Cd98   2.483       .  S
C94         C753   1.488       .  S
C94         O103   1.265       .  A
C94          O99   1.270       .  A
O95         C101   1.270       .  A
O95         Cd98   2.476   1_565  S
C96         C853   1.484       .  S
C96         O104   1.264       .  A
C97         C743   1.484       .  S
C97         O102   1.270       .  A
C97         O100   1.265       .  A
Cd98        O105   2.443   1_545  S
Cd98        O104   2.439       .  S
Cd98        O103   2.465   1_545  S
Cd98         O99   2.480   1_545  S
Cd98        O102   2.477       .  S
Cd98        O100   2.449       .  S
C101        C730   1.484       .  S
C101        O105   1.265       .  A
O106        C109   1.271       .  A
O106       Cd111   2.496   1_565  S
C107        C710   1.483       .  S
C107        O116   1.265       .  A
C107        O112   1.270       .  A
O108        C114   1.269       .  A
O108       Cd111   2.477   1_565  S
C109        C700   1.485       .  S
C109        O117   1.264       .  A
C110        C910   1.483       .  S
C110        O115   1.269       .  A
C110        O113   1.266       .  A
Cd111       O118   2.448   1_545  S
Cd111       O117   2.433   1_545  S
Cd111       O116   2.446       .  S
Cd111       O112   2.472       .  S
Cd111       O115   2.455       .  S
Cd111       O113   2.466       .  S
C114        C720   1.484       .  S
C114        O118   1.265       .  A
C119        N120   1.360       .  A
C119        N124   1.354       .  A
C119        C740   1.484       .  S
N120        C121   1.363       .  A
C121        N122   1.362       .  A
C121        C690   1.489       .  S
N122        C123   1.360       .  A
C123        N124   1.355       .  A
C123        C713   1.487       .  S
O125        C128   1.271       .  A
O125       Cd130   2.491       .  S
C126        C660   1.482       .  S
C126        O135   1.264       .  A
C126        O131   1.271       .  A
O127        C133   1.269       .  A
O127       Cd130   2.448       .  S
C128        C670   1.483       .  S
C128        O136   1.264       .  A
C129        C683   1.483       .  S
C129        O134   1.269       .  A
C129        O132   1.266       .  A
Cd130       O137   2.458       .  S
Cd130       O136   2.430       .  S
Cd130       O135   2.423   1_455  S
Cd130       O131   2.486   1_455  S
Cd130       O134   2.469   1_455  S
Cd130       O132   2.453   1_455  S
C133        C953   1.480       .  S
C133        O137   1.265       .  A
O138        C141   1.270       .  A
O138       Cd143   2.475       .  S
C139        C650   1.481       .  S
C139        O148   1.266       .  A
C139        O144   1.271       .  A
O140        C146   1.270       .  A
O140       Cd143   2.472   1_655  S
C141        C900   1.480       .  S
C141        O149   1.264       .  A
C142        C640   1.481       .  S
C142        O147   1.270       .  A
C142        O145   1.265       .  A
Cd143       O150   2.441   1_455  S
Cd143       O149   2.437       .  S
Cd143       O148   2.433   1_455  S
Cd143       O144   2.469   1_455  S
Cd143       O147   2.462       .  S
Cd143       O145   2.444       .  S
C146        C633   1.482       .  S
C146        O150   1.265       .  A
C151        N152   1.361       .  A
C151        N156   1.353       .  A
C151        C673   1.481       .  S
N152        C153   1.364       .  A
C153        N154   1.361       .  A
C153        C620   1.491       .  S
N154        C155   1.359       .  A
C155        N156   1.354       .  A
C155        C643   1.477       .  S
C157        N158   1.356       .  A
C157        N162   1.356       .  A
C157        C763   1.487       .  S
N158        C159   1.358       .  A
C159        N160   1.362       .  A
C159        C693   1.487       .  S
N160        C161   1.363       .  A
C161        N162   1.358       .  A
C161        C623   1.491       .  S
C163        N164   1.361       .  A
C163        N168   1.355       .  A
C163        C723   1.490       .  S
N164        C165   1.365       .  A
C165        N166   1.366       .  A
C165        C940   1.500       .  S
N166        C167   1.364       .  A
C167        N168   1.356       .  A
C167        C613   1.492       .  S
C169        N170   1.365       .  A
C169        N174   1.367       .  A
C169        C843   1.497       .  S
N170        C171   1.361       .  A
C171        N172   1.352       .  A
C171        C653   1.487       .  S
N172        C173   1.353       .  A
C173        N174   1.362       .  A
C173        C600   1.490       .  S
C175        N176   1.360       .  A
C175        N180   1.353       .  A
C175        C590   1.489       .  S
N176        C177   1.364       .  A
C177        N178   1.368       .  A
C177        C930   1.496       .  S
N178        C179   1.364       .  A
C179        N180   1.354       .  A
C179        C750   1.491       .  S
C181        N182   1.367       .  A
C181        N186   1.362       .  A
C181        C893   1.495       .  S
N182        C183   1.363       .  A
C183        N184   1.353       .  A
C183        C583   1.487       .  S
N184        C185   1.351       .  A
C185        N186   1.358       .  A
C185        C793   1.483       .  S
C187        N188   1.363       .  A
C187        N192   1.353       .  A
C187        C823   1.492       .  S
N188        C189   1.367       .  A
C189        N190   1.367       .  A
C189        C880   1.499       .  S
N190        C191   1.361       .  A
C191        N192   1.353       .  A
C191        C570   1.489       .  S
C193        N194   1.364       .  A
C193        N198   1.361       .  A
C193        C830   1.494       .  S
N194        C195   1.363       .  A
C195        N196   1.356       .  A
C195        C680   1.490       .  S
N196        C197   1.355       .  A
C197        N198   1.358       .  A
C197        C563   1.485       .  S
C199        N200   1.354       .  A
C199        N204   1.363       .  A
C199        C803   1.485       .  S
N200        C201   1.352       .  A
C201        N202   1.358       .  A
C201        C543   1.479       .  S
N202        C203   1.362       .  A
C203        N204   1.366       .  A
C203        C550   1.494       .  S
O205        C208   1.269       .  A
O205       Cd210   2.469       .  S
C206        C560   1.480       .  S
C206        O215   1.266       .  A
C206        O211   1.270       .  A
O207        C213   1.269       .  A
O207       Cd210   2.468   1_554  S
C208       C1023   1.481       .  S
C208        O216   1.264       .  A
C209        C540   1.480       .  S
C209        O214   1.270       .  A
C209        O212   1.265       .  A
Cd210       O217   2.443   1_556  S
Cd210       O216   2.437       .  S
Cd210       O215   2.426   1_556  S
Cd210       O211   2.468   1_556  S
Cd210       O214   2.458       .  S
Cd210       O212   2.440       .  S
C213        C530   1.479       .  S
C213        O217   1.264       .  A
C218        N219   1.351       .  A
C218        N223   1.358       .  A
C218        C510   1.480       .  S
N219        C220   1.354       .  A
C220        N221   1.364       .  A
C220        C630   1.489       .  S
N221        C222   1.368       .  A
C222        N223   1.363       .  A
C222        C520   1.496       .  S
O224        C227   1.272       .  A
O224       Cd229   2.483   1_655  S
C225        C500   1.484       .  S
C225        O234   1.264       .  A
C225        O230   1.272       .  A
O226        C232   1.270       .  A
O226       Cd229   2.459   1_655  S
C227        C513   1.483       .  S
C227        O235   1.264       .  A
C228        C580   1.482       .  S
C228        O233   1.270       .  A
C228        O231   1.265       .  A
Cd229       O236   2.457   1_455  S
Cd229       O235   2.431   1_455  S
Cd229       O234   2.436       .  S
Cd229       O230   2.477       .  S
Cd229       O233   2.464       .  S
Cd229       O231   2.441       .  S
C232       C1013   1.483       .  S
C232        O236   1.266       .  A
C237        N238   1.359       .  A
C237        N242   1.352       .  A
C237        C480   1.481       .  S
N238        C239   1.363       .  A
C239        N240   1.367       .  A
C239        C493   1.495       .  S
N240        C241   1.363       .  A
C241        N242   1.353       .  A
C241        C503   1.483       .  S
C243        N244   1.363       .  A
C243        N248   1.354       .  A
C243        C460   1.484       .  S
N244        C245   1.365       .  A
C245        N246   1.365       .  A
C245        C470   1.499       .  S
N246        C247   1.362       .  A
C247        N248   1.353       .  A
C247        C663   1.482       .  S
O249        C252   1.270       .  A
O249       Cd254   2.480       .  S
C250       C1053   1.486       .  S
C250        O259   1.265       .  A
C250        O255   1.270       .  A
O251        C257   1.271       .  A
O251       Cd254   2.484   1_655  S
C252        C610   1.488       .  S
C252        O260   1.265       .  A
C253        C483   1.482       .  S
C253        O258   1.271       .  A
C253        O256   1.264       .  A
Cd254       O261   2.437   1_455  S
Cd254       O260   2.464       .  S
Cd254       O259   2.461   1_455  S
Cd254       O255   2.477   1_455  S
Cd254       O258   2.477       .  S
Cd254       O256   2.436       .  S
C257        C463   1.484       .  S
C257        O261   1.265       .  A
C262        N263   1.364       .  A
C262        N267   1.353       .  A
C262        C733   1.486       .  S
N263        C264   1.367       .  A
C264        N265   1.365       .  A
C264        C450   1.500       .  S
N265        C266   1.360       .  A
C266        N267   1.352       .  A
C266        C440   1.482       .  S
O268        C271   1.270       .  A
O268       Cd273   2.467       .  S
C269        C443   1.482       .  S
C269        O278   1.265       .  A
C269        O274   1.271       .  A
O270        C276   1.270       .  A
O270       Cd273   2.463       .  S
C271        C430   1.480       .  S
C271        O279   1.265       .  A
C272       C1043   1.487       .  S
C272        O277   1.270       .  A
C272        O275   1.265       .  A
Cd273       O280   2.462       .  S
Cd273       O279   2.435       .  S
Cd273       O278   2.425   1_545  S
Cd273       O274   2.476   1_545  S
Cd273       O277   2.486   1_545  S
Cd273       O275   2.457   1_545  S
C276        C603   1.485       .  S
C276        O280   1.266       .  A
C281        N282   1.350       .  A
C281        N286   1.361       .  A
C281        C410   1.486       .  S
N282        C283   1.353       .  A
C283        N284   1.364       .  A
C283        C533   1.489       .  S
N284        C285   1.367       .  A
C285        N286   1.366       .  A
C285        C420   1.498       .  S
C287        N288   1.362       .  A
C287        N292   1.354       .  A
C287        C773   1.488       .  S
N288        C289   1.366       .  A
C289        N290   1.365       .  A
C289        C400   1.494       .  S
N290        C291   1.360       .  A
C291        N292   1.352       .  A
C291        C390   1.485       .  S
O293        C296   1.271       .  A
O293       Cd298   2.489   1_554  S
C294        C393   1.486       .  S
C294        O303   1.265       .  A
C294        O299   1.271       .  A
O295        C301   1.269       .  A
O295       Cd298   2.456   1_554  S
C296        C413   1.484       .  S
C296        O304   1.263       .  A
C297        C993   1.483       .  S
C297        O302   1.269       .  A
C297        O300   1.265       .  A
Cd298       O305   2.449   1_556  S
Cd298       O304   2.432   1_556  S
Cd298       O303   2.452       .  S
Cd298       O299   2.483       .  S
Cd298       O302   2.464       .  S
Cd298       O300   2.457       .  S
C301        C593   1.481       .  S
C301        O305   1.266       .  A
C306        N307   1.354       .  A
C306        N311   1.359       .  A
C306        C433   1.481       .  S
N307        C308   1.353       .  A
C308        N309   1.360       .  A
C308        C370   1.480       .  S
N309        C310   1.362       .  A
C310        N311   1.363       .  A
C310        C383   1.488       .  S
C312        N313   1.364       .  A
C312        N317   1.354       .  A
C312        C703   1.488       .  S
N313        C314   1.367       .  A
C314        N315   1.363       .  A
C314        C360   1.498       .  S
N315        C316   1.359       .  A
C316        N317   1.352       .  A
C316        C353   1.483       .  S
O318        C321   1.271       .  A
O318       Cd323   2.484   1_565  S
C319        C573   1.486       .  S
C319        O328   1.265       .  A
C319        O324   1.270       .  A
O320        C326   1.270       .  A
O320       Cd323   2.465       .  S
C321        C980   1.484       .  S
C321        O329   1.265       .  A
C322        C350   1.479       .  S
C322        O327   1.269       .  A
C322        O325   1.265       .  A
Cd323       O330   2.429       .  S
Cd323       O329   2.453   1_545  S
Cd323       O328   2.461       .  S
Cd323       O324   2.475       .  S
Cd323       O327   2.460   1_545  S
Cd323       O325   2.436   1_545  S
C326        C373   1.480       .  S
C326        O330   1.265       .  A
C331        N332   1.362       .  A
C331        N336   1.364       .  A
C331        C363   1.498       .  S
N332        C333   1.362       .  A
C333        N334   1.359       .  A
C333        C490   1.495       .  S
N334        C335   1.360       .  A
C335        N336   1.363       .  A
C335        C403   1.495       .  S
C337        N338   1.363       .  A
C337        N342   1.362       .  A
C337        C423   1.497       .  S
N338        C339   1.364       .  A
C339        N340   1.364       .  A
C339        C473   1.500       .  S
N340        C341   1.362       .  A
C341        N342   1.360       .  A
C341        C453   1.500       .  S
C343        N344   1.365       .  A
C343        N348   1.361       .  A
C343        C553   1.495       .  S
N344        C345   1.363       .  A
C345        N346   1.357       .  A
C345        C523   1.494       .  S
N346        C347   1.358       .  A
C347        N348   1.359       .  A
C347        C380   1.486       .  S
C349        C350   1.402       .  A
C349        C354   1.395       .  A
C349        H356   1.083       .  S
C350        C351   1.410       .  A
C351        C352   1.398       .  A
C351        F358   1.357       .  S
C352        C353   1.404       .  A
C352        H357   1.083       .  S
C353        C354   1.411       .  A
C354        F355   1.357       .  S
C359        C360   1.409       .  A
C359        C364   1.401       .  A
C359        H366   1.083       .  S
C360        C361   1.410       .  A
C361        C362   1.403       .  A
C361        F368   1.357       .  S
C362        C363   1.410       .  A
C362        H367   1.083       .  S
C363        C364   1.411       .  A
C364        F365   1.357       .  S
C369        C370   1.403       .  A
C369        C374   1.397       .  A
C369        H376   1.083       .  S
C370        C371   1.411       .  A
C371        C372   1.396       .  A
C371        F378   1.358       .  S
C372        C373   1.403       .  A
C372        H377   1.083       .  S
C373        C374   1.410       .  A
C374        F375   1.357       .  S
C379        C380   1.406       .  A
C379        C384   1.397       .  A
C379        H386   1.083       .  S
C380        C381   1.409       .  A
C381        C382   1.400       .  A
C381        F388   1.357       .  S
C382        C383   1.408       .  A
C382        H387   1.083       .  S
C383        C384   1.409       .  A
C384        F385   1.357       .  S
C389        C390   1.408       .  A
C389        C394   1.397       .  A
C389        H396   1.083       .  S
C390        C391   1.406       .  A
C391        C392   1.402       .  A
C391        F398   1.357       .  S
C392        C393   1.410       .  A
C392        H397   1.083       .  S
C393        C394   1.406       .  A
C394        F395   1.357       .  S
C399        C400   1.408       .  A
C399        C404   1.402       .  A
C399        H406   1.083       .  S
C400        C401   1.410       .  A
C401        C402   1.401       .  A
C401        F408   1.357       .  S
C402        C403   1.408       .  A
C402        H407   1.083       .  S
C403        C404   1.410       .  A
C404        F405   1.357       .  S
C409        C410   1.403       .  A
C409        C414   1.401       .  A
C409        H416   1.083       .  S
C410        C411   1.413       .  A
C411        C412   1.397       .  A
C411        F418   1.357       .  S
C412        C413   1.401       .  A
C412        H417   1.083       .  S
C413        C414   1.412       .  A
C414        F415   1.357       .  S
C419        C420   1.409       .  A
C419        C424   1.406       .  A
C419        H426   1.083       .  S
C420        C421   1.411       .  A
C421        C422   1.400       .  A
C421        F428   1.357       .  S
C422        C423   1.407       .  A
C422        H427   1.083       .  S
C423        C424   1.412       .  A
C424        F425   1.357       .  S
C429        C430   1.408       .  A
C429        C434   1.399       .  A
C429        H436   1.083       .  S
C430        C431   1.405       .  A
C431        C432   1.395       .  A
C431        F438   1.357       .  S
C432        C433   1.407       .  A
C432        H437   1.083       .  S
C433        C434   1.407       .  A
C434        F435   1.357       .  S
C439        C440   1.403       .  A
C439        C444   1.399       .  A
C439        H446   1.083       .  S
C440        C441   1.411       .  A
C441        C442   1.397       .  A
C441        F448   1.358       .  S
C442        C443   1.403       .  A
C442        H447   1.083       .  S
C443        C444   1.411       .  A
C444        F445   1.357       .  S
C449        C450   1.409       .  A
C449        C454   1.402       .  A
C449        H456   1.083       .  S
C450        C451   1.411       .  A
C451        C452   1.404       .  A
C451        F458   1.357       .  S
C452        C453   1.410       .  A
C452        H457   1.083       .  S
C453        C454   1.411       .  A
C454        F455   1.357       .  S
C459        C460   1.403       .  A
C459        C464   1.400       .  A
C459        H466   1.083       .  S
C460        C461   1.411       .  A
C461        C462   1.398       .  A
C461        F468   1.357       .  S
C462        C463   1.403       .  A
C462        H467   1.083       .  S
C463        C464   1.412       .  A
C464        F465   1.357       .  S
C469        C470   1.408       .  A
C469        C474   1.403       .  A
C469        H476   1.083       .  S
C470        C471   1.411       .  A
C471        C472   1.404       .  A
C471        F478   1.357       .  S
C472        C473   1.409       .  A
C472        H477   1.083       .  S
C473        C474   1.412       .  A
C474        F475   1.357       .  S
C479        C480   1.403       .  A
C479        C484   1.399       .  A
C479        H486   1.083       .  S
C480        C481   1.410       .  A
C481        C482   1.397       .  A
C481        F488   1.357       .  S
C482        C483   1.403       .  A
C482        H487   1.083       .  S
C483        C484   1.411       .  A
C484        F485   1.357       .  S
C489        C490   1.406       .  A
C489        C494   1.401       .  A
C489        H496   1.083       .  S
C490        C491   1.412       .  A
C491        C492   1.402       .  A
C491        F498   1.357       .  S
C492        C493   1.407       .  A
C492        H497   1.083       .  S
C493        C494   1.413       .  A
C494        F495   1.357       .  S
C499        C500   1.402       .  A
C499        C504   1.396       .  A
C499        H506   1.083       .  S
C500        C501   1.413       .  A
C501        C502   1.401       .  A
C501        F508   1.357       .  S
C502        C503   1.403       .  A
C502        H507   1.083       .  S
C503        C504   1.411       .  A
C504        F505   1.357       .  S
C509        C510   1.402       .  A
C509        C514   1.399       .  A
C509        H516   1.083       .  S
C510        C511   1.410       .  A
C511        C512   1.398       .  A
C511        F518   1.358       .  S
C512        C513   1.403       .  A
C512        H517   1.083       .  S
C513        C514   1.412       .  A
C514        F515   1.357       .  S
C519        C520   1.406       .  A
C519        C524   1.402       .  A
C519        H526   1.083       .  S
C520        C521   1.413       .  A
C521        C522   1.401       .  A
C521        F528   1.357       .  S
C522        C523   1.405       .  A
C522        H527   1.083       .  S
C523        C524   1.413       .  A
C524        F525   1.357       .  S
C529        C530   1.407       .  A
C529        C534   1.402       .  A
C529        H536   1.083       .  S
C530        C531   1.403       .  A
C531        C532   1.394       .  A
C531        F538   1.358       .  S
C532        C533   1.411       .  A
C532        H537   1.083       .  S
C533        C534   1.408       .  A
C534        F535   1.357       .  S
C539        C540   1.403       .  A
C539        C544   1.395       .  A
C539        H546   1.083       .  S
C540        C541   1.411       .  A
C541        C542   1.399       .  A
C541        F548   1.357       .  S
C542        C543   1.404       .  A
C542        H547   1.083       .  S
C543        C544   1.409       .  A
C544        F545   1.358       .  S
C549        C550   1.406       .  A
C549        C554   1.401       .  A
C549        H556   1.083       .  S
C550        C551   1.413       .  A
C551        C552   1.400       .  A
C551        F558   1.357       .  S
C552        C553   1.406       .  A
C552        H557   1.083       .  S
C553        C554   1.413       .  A
C554        F555   1.357       .  S
C559        C560   1.406       .  A
C559        C564   1.397       .  A
C559        H566   1.083       .  S
C560        C561   1.406       .  A
C561        C562   1.398       .  A
C561        F568   1.357       .  S
C562        C563   1.408       .  A
C562        H567   1.083       .  S
C563        C564   1.408       .  A
C564        F565   1.357       .  S
C569        C570   1.408       .  A
C569        C574   1.396       .  A
C569        H576   1.083       .  S
C570        C571   1.408       .  A
C571        C572   1.405       .  A
C571        F578   1.357       .  S
C572        C573   1.410       .  A
C572        H577   1.083       .  S
C573        C574   1.405       .  A
C574        F575   1.357       .  S
C579        C580   1.408       .  A
C579        C584   1.402       .  A
C579        H586   1.083       .  S
C580        C581   1.404       .  A
C581        C582   1.395       .  A
C581        F588   1.358       .  S
C582        C583   1.410       .  A
C582        H587   1.083       .  S
C583        C584   1.407       .  A
C584        F585   1.357       .  S
C589        C590   1.409       .  A
C589        C594   1.395       .  A
C589        H596   1.083       .  S
C590        C591   1.409       .  A
C591        C592   1.401       .  A
C591        F598   1.357       .  S
C592        C593   1.407       .  A
C592        H597   1.083       .  S
C593        C594   1.405       .  A
C594        F595   1.358       .  S
C599        C600   1.409       .  A
C599        C604   1.394       .  A
C599        H606   1.083       .  S
C600        C601   1.409       .  A
C601        C602   1.404       .  A
C601        F608   1.357       .  S
C602        C603   1.409       .  A
C602        H607   1.083       .  S
C603        C604   1.404       .  A
C604        F605   1.357       .  S
C609        C610   1.402       .  A
C609        C614   1.398       .  A
C609        H616   1.083       .  S
C610        C611   1.412       .  A
C611        C612   1.403       .  A
C611        F618   1.357       .  S
C612        C613   1.406       .  A
C612        H617   1.083       .  S
C613        C614   1.413       .  A
C614        F615   1.357       .  S
C619        C620   1.405       .  A
C619        C624   1.397       .  A
C619        H626   1.083       .  S
C620        C621   1.412       .  A
C621        C622   1.401       .  A
C621        F628   1.357       .  S
C622        C623   1.406       .  A
C622        H627   1.083       .  S
C623        C624   1.412       .  A
C624        F625   1.357       .  S
C629        C630   1.411       .  A
C629        C634   1.396       .  A
C629        H636   1.083       .  S
C630        C631   1.408       .  A
C631        C632   1.402       .  A
C631        F638   1.357       .  S
C632        C633   1.408       .  A
C632        H637   1.083       .  S
C633        C634   1.404       .  A
C634        F635   1.358       .  S
C639        C640   1.403       .  A
C639        C644   1.395       .  A
C639        H646   1.083       .  S
C640        C641   1.411       .  A
C641        C642   1.399       .  A
C641        F648   1.357       .  S
C642        C643   1.403       .  A
C642        H647   1.083       .  S
C643        C644   1.408       .  A
C644        F645   1.357       .  S
C649        C650   1.408       .  A
C649        C654   1.400       .  A
C649        H656   1.083       .  S
C650        C651   1.404       .  A
C651        C652   1.396       .  A
C651        F658   1.358       .  S
C652        C653   1.410       .  A
C652        H657   1.083       .  S
C653        C654   1.407       .  A
C654        F655   1.357       .  S
C659        C660   1.403       .  A
C659        C664   1.398       .  A
C659        H666   1.083       .  S
C660        C661   1.412       .  A
C661        C662   1.398       .  A
C661        F668   1.357       .  S
C662        C663   1.402       .  A
C662        H667   1.083       .  S
C663        C664   1.411       .  A
C664        F665   1.357       .  S
C669        C670   1.404       .  A
C669        C674   1.399       .  A
C669        H676   1.083       .  S
C670        C671   1.412       .  A
C671        C672   1.398       .  A
C671        F678   1.357       .  S
C672        C673   1.402       .  A
C672        H677   1.083       .  S
C673        C674   1.410       .  A
C674        F675   1.357       .  S
C679        C680   1.406       .  A
C679        C684   1.400       .  A
C679        H686   1.083       .  S
C680        C681   1.414       .  A
C681        C682   1.398       .  A
C681        F688   1.357       .  S
C682        C683   1.402       .  A
C682        H687   1.083       .  S
C683        C684   1.409       .  A
C684        F685   1.357       .  S
C689        C690   1.409       .  A
C689        C694   1.402       .  A
C689        H696   1.083       .  S
C690        C691   1.409       .  A
C691        C692   1.396       .  A
C691        F698   1.357       .  S
C692        C693   1.407       .  A
C692        H697   1.083       .  S
C693        C694   1.408       .  A
C694        F695   1.357       .  S
C699        C700   1.408       .  A
C699        C704   1.400       .  A
C699        H706   1.083       .  S
C700        C701   1.405       .  A
C701        C702   1.399       .  A
C701        F708   1.358       .  S
C702        C703   1.411       .  A
C702        H707   1.083       .  S
C703        C704   1.406       .  A
C704        F705   1.357       .  S
C709        C710   1.408       .  A
C709        C714   1.400       .  A
C709        H716   1.083       .  S
C710        C711   1.405       .  A
C711        C712   1.395       .  A
C711        F718   1.357       .  S
C712        C713   1.408       .  A
C712        H717   1.083       .  S
C713        C714   1.409       .  A
C714        F715   1.358       .  S
C719        C720   1.407       .  A
C719        C724   1.401       .  A
C719        H726   1.083       .  S
C720        C721   1.406       .  A
C721        C722   1.399       .  A
C721        F728   1.358       .  S
C722        C723   1.409       .  A
C722        H727   1.083       .  S
C723        C724   1.409       .  A
C724        F725   1.357       .  S
C729        C730   1.409       .  A
C729        C734   1.401       .  A
C729        H736   1.083       .  S
C730        C731   1.405       .  A
C731        C732   1.397       .  A
C731        F738   1.358       .  S
C732        C733   1.409       .  A
C732        H737   1.083       .  S
C733        C734   1.406       .  A
C734        F735   1.357       .  S
C739        C740   1.404       .  A
C739        C744   1.400       .  A
C739        H746   1.083       .  S
C740        C741   1.410       .  A
C741        C742   1.397       .  A
C741        F748   1.358       .  S
C742        C743   1.403       .  A
C742        H747   1.083       .  S
C743        C744   1.411       .  A
C744        F745   1.357       .  S
C749        C750   1.410       .  A
C749        C754   1.397       .  A
C749        H756   1.083       .  S
C750        C751   1.408       .  A
C751        C752   1.405       .  A
C751        F758   1.357       .  S
C752        C753   1.410       .  A
C752        H757   1.083       .  S
C753        C754   1.405       .  A
C754        F755   1.357       .  S
C759        C760   1.407       .  A
C759        C764   1.397       .  A
C759        H766   1.083       .  S
C760        C761   1.409       .  A
C761        C762   1.398       .  A
C761        F768   1.357       .  S
C762        C763   1.407       .  A
C762        H767   1.083       .  S
C763        C764   1.409       .  A
C764        F765   1.357       .  S
C769        C770   1.408       .  A
C769        C774   1.403       .  A
C769        H776   1.083       .  S
C770        C771   1.404       .  A
C771        C772   1.393       .  A
C771        F778   1.357       .  S
C772        C773   1.408       .  A
C772        H777   1.083       .  S
C773        C774   1.409       .  A
C774        F775   1.357       .  S
C779        C780   1.407       .  A
C779        C784   1.399       .  A
C779        H786   1.083       .  S
C780        C781   1.405       .  A
C781        C782   1.396       .  A
C781        F788   1.357       .  S
C782        C783   1.408       .  A
C782        H787   1.083       .  S
C783        C784   1.408       .  A
C784        F785   1.357       .  S
C789        C790   1.401       .  A
C789        C794   1.394       .  A
C789        H796   1.083       .  S
C790        C791   1.410       .  A
C791        C792   1.400       .  A
C791        F798   1.358       .  S
C792        C793   1.405       .  A
C792        H797   1.083       .  S
C793        C794   1.411       .  A
C794        F795   1.357       .  S
C799        C800   1.408       .  A
C799        C804   1.400       .  A
C799        H806   1.083       .  S
C800        C801   1.405       .  A
C801        C802   1.397       .  A
C801        F808   1.358       .  S
C802        C803   1.409       .  A
C802        H807   1.083       .  S
C803        C804   1.406       .  A
C804        F805   1.357       .  S
C809        C810   1.407       .  A
C809        C814   1.399       .  A
C809        H816   1.083       .  S
C810        C811   1.406       .  A
C811        C812   1.396       .  A
C811        F818   1.357       .  S
C812        C813   1.406       .  A
C812        H817   1.083       .  S
C813        C814   1.407       .  A
C814        F815   1.358       .  S
C819        C820   1.401       .  A
C819        C824   1.396       .  A
C819        H826   1.083       .  S
C820        C821   1.411       .  A
C821        C822   1.404       .  A
C821        F828   1.357       .  S
C822        C823   1.406       .  A
C822        H827   1.083       .  S
C823        C824   1.415       .  A
C824        F825   1.357       .  S
C829        C830   1.407       .  A
C829        C834   1.402       .  A
C829        H836   1.083       .  S
C830        C831   1.412       .  A
C831        C832   1.399       .  A
C831        F838   1.357       .  S
C832        C833   1.407       .  A
C832        H837   1.083       .  S
C833        C834   1.412       .  A
C834        F835   1.356       .  S
C839        C840   1.408       .  A
C839        C844   1.400       .  A
C839        H846   1.083       .  S
C840        C841   1.411       .  A
C841        C842   1.403       .  A
C841        F848   1.357       .  S
C842        C843   1.409       .  A
C842        H847   1.083       .  S
C843        C844   1.410       .  A
C844        F845   1.357       .  S
C849        C850   1.403       .  A
C849        C854   1.400       .  A
C849        H856   1.083       .  S
C850        C851   1.411       .  A
C851        C852   1.397       .  A
C851        F858   1.357       .  S
C852        C853   1.402       .  A
C852        H857   1.083       .  S
C853        C854   1.412       .  A
C854        F855   1.357       .  S
C859        C860   1.406       .  A
C859        C864   1.404       .  A
C859        H866   1.083       .  S
C860        C861   1.416       .  A
C861        C862   1.392       .  A
C861        F868   1.356       .  S
C862        C863   1.398       .  A
C862        H867   1.083       .  S
C863        C864   1.412       .  A
C864        F865   1.357       .  S
C869        C870   1.409       .  A
C869        C874   1.405       .  A
C869        H876   1.083       .  S
C870        C871   1.411       .  A
C871        C872   1.399       .  A
C871        F878   1.357       .  S
C872        C873   1.408       .  A
C872        H877   1.083       .  S
C873        C874   1.411       .  A
C874        F875   1.357       .  S
C879        C880   1.410       .  A
C879        C884   1.405       .  A
C879        H886   1.083       .  S
C880        C881   1.411       .  A
C881        C882   1.400       .  A
C881        F888   1.357       .  S
C882        C883   1.408       .  A
C882        H887   1.083       .  S
C883        C884   1.411       .  A
C884        F885   1.357       .  S
C889        C890   1.406       .  A
C889        C894   1.401       .  A
C889        H896   1.083       .  S
C890        C891   1.414       .  A
C891        C892   1.401       .  A
C891        F898   1.357       .  S
C892        C893   1.406       .  A
C892        H897   1.083       .  S
C893        C894   1.413       .  A
C894        F895   1.357       .  S
C899        C900   1.408       .  A
C899        C904   1.401       .  A
C899        H906   1.083       .  S
C900        C901   1.404       .  A
C901        C902   1.395       .  A
C901        F908   1.357       .  S
C902        C903   1.409       .  A
C902        H907   1.083       .  S
C903        C904   1.407       .  A
C904        F905   1.357       .  S
C909        C910   1.402       .  A
C909        C914   1.394       .  A
C909        H916   1.083       .  S
C910        C911   1.411       .  A
C911        C912   1.402       .  A
C911        F918   1.357       .  S
C912        C913   1.405       .  A
C912        H917   1.083       .  S
C913        C914   1.411       .  A
C914        F915   1.357       .  S
C919        C920   1.408       .  A
C919        C924   1.400       .  A
C919        H926   1.083       .  S
C920        C921   1.410       .  A
C921        C922   1.401       .  A
C921        F928   1.357       .  S
C922        C923   1.408       .  A
C922        H927   1.083       .  S
C923        C924   1.411       .  A
C924        F925   1.357       .  S
C929        C930   1.407       .  A
C929        C934   1.403       .  A
C929        H936   1.083       .  S
C930        C931   1.412       .  A
C931        C932   1.403       .  A
C931        F938   1.357       .  S
C932        C933   1.407       .  A
C932        H937   1.083       .  S
C933        C934   1.411       .  A
C934        F935   1.357       .  S
C939        C940   1.408       .  A
C939        C944   1.403       .  A
C939        H946   1.083       .  S
C940        C941   1.412       .  A
C941        C942   1.406       .  A
C941        F948   1.357       .  S
C942        C943   1.409       .  A
C942        H947   1.083       .  S
C943        C944   1.413       .  A
C944        F945   1.357       .  S
C949        C950   1.406       .  A
C949        C954   1.402       .  A
C949        H956   1.083       .  S
C950        C951   1.412       .  A
C951        C952   1.392       .  A
C951        F958   1.355       .  S
C952        C953   1.400       .  A
C952        H957   1.083       .  S
C953        C954   1.410       .  A
C954        F955   1.357       .  S
C959        C960   1.405       .  A
C959        C964   1.403       .  A
C959        H966   1.083       .  S
C960        C961   1.415       .  A
C961        C962   1.394       .  A
C961        F968   1.355       .  S
C962        C963   1.399       .  A
C962        H967   1.083       .  S
C963        C964   1.411       .  A
C964        F965   1.357       .  S
C969        C970   1.409       .  A
C969        C974   1.402       .  A
C969        H976   1.083       .  S
C970        C971   1.411       .  A
C971        C972   1.405       .  A
C971        F978   1.357       .  S
C972        C973   1.410       .  A
C972        H977   1.083       .  S
C973        C974   1.411       .  A
C974        F975   1.357       .  S
C979        C980   1.401       .  A
C979        C984   1.399       .  A
C979        H986   1.083       .  S
C980        C981   1.410       .  A
C981        C982   1.402       .  A
C981        F988   1.357       .  S
C982        C983   1.407       .  A
C982        H987   1.083       .  S
C983        C984   1.415       .  A
C984        F985   1.357       .  S
C989        C990   1.405       .  A
C989        C994   1.400       .  A
C989        H996   1.083       .  S
C990        C991   1.409       .  A
C991        C992   1.397       .  A
C991        F998   1.357       .  S
C992        C993   1.404       .  A
C992        H997   1.083       .  S
C993        C994   1.410       .  A
C994        F995   1.358       .  S
C999       C1000   1.407       .  A
C999       C1004   1.402       .  A
C999       H1006   1.083       .  S
C1000      C1001   1.412       .  A
C1001      C1002   1.399       .  A
C1001      F1008   1.357       .  S
C1002      C1003   1.407       .  A
C1002      H1007   1.083       .  S
C1003      C1004   1.411       .  A
C1004      F1005   1.357       .  S
C1009      C1010   1.406       .  A
C1009      C1014   1.402       .  A
C1009      H1016   1.083       .  S
C1010      C1011   1.414       .  A
C1011      C1012   1.395       .  A
C1011      F1018   1.357       .  S
C1012      C1013   1.401       .  A
C1012      H1017   1.083       .  S
C1013      C1014   1.411       .  A
C1014      F1015   1.357       .  S
C1019      C1020   1.407       .  A
C1019      C1024   1.396       .  A
C1019      H1026   1.083       .  S
C1020      C1021   1.406       .  A
C1021      C1022   1.399       .  A
C1021      F1028   1.357       .  S
C1022      C1023   1.408       .  A
C1022      H1027   1.083       .  S
C1023      C1024   1.406       .  A
C1024      F1025   1.357       .  S
C1029      C1030   1.408       .  A
C1029      C1034   1.401       .  A
C1029      H1036   1.083       .  S
C1030      C1031   1.411       .  A
C1031      C1032   1.400       .  A
C1031      F1038   1.357       .  S
C1032      C1033   1.408       .  A
C1032      H1037   1.083       .  S
C1033      C1034   1.410       .  A
C1034      F1035   1.357       .  S
C1039      C1040   1.404       .  A
C1039      C1044   1.402       .  A
C1039      H1046   1.083       .  S
C1040      C1041   1.411       .  A
C1041      C1042   1.399       .  A
C1041      F1048   1.357       .  S
C1042      C1043   1.403       .  A
C1042      H1047   1.083       .  S
C1043      C1044   1.412       .  A
C1044      F1045   1.357       .  S
C1049      C1050   1.409       .  A
C1049      C1054   1.397       .  A
C1049      H1056   1.083       .  S
C1050      C1051   1.410       .  A
C1051      C1052   1.404       .  A
C1051      F1058   1.357       .  S
C1052      C1053   1.409       .  A
C1052      H1057   1.083       .  S
C1053      C1054   1.405       .  A
C1054      F1055   1.357       .  S
C1059      C1060   1.407       .  A
C1059      C1064   1.401       .  A
C1059      H1066   1.083       .  S
C1060      C1061   1.412       .  A
C1061      C1062   1.402       .  A
C1061      F1068   1.357       .  S
C1062      C1063   1.407       .  A
C1062      H1067   1.083       .  S
C1063      C1064   1.411       .  A
C1064      F1065   1.357       .  S
