geometry optimzed in LAMMPS
_audit_creation_date              2020-11-30 
_audit_creation_method            'lammps2cif' 
_symmetry_space_group_name_H-M    'P1' 
_symmetry_Int_Tables_number       1 
_symmetry_cell_setting            triclinic 
loop_ 
_symmetry_equiv_pos_as_xyz 
  x,y,z 
_cell_length_a                    24.05085162 
_cell_length_b                    24.19050314585917 
_cell_length_c                    43.10198140195482 
_cell_angle_alpha                 90.555821635211 
_cell_angle_beta                  90.562615634724 
_cell_angle_gamma                 89.84118789174508 
loop_ 
_atom_site_label 
_atom_site_type_symbol 
_atom_site_fract_x 
_atom_site_fract_y 
_atom_site_fract_z 
_atom_site_charge 
C1          C  0.72799374  0.72088941  0.27518530     0.80500
N2          N  0.68799639  0.68119788  0.27604446    -0.77800
C3          C  0.66665505  0.65979139  0.24914409     0.82900
N4          N  0.68519717  0.67825429  0.22158614    -0.77800
C5          C  0.72480917  0.71776873  0.22052411     0.83000
N6          N  0.74612272  0.73900051  0.24733969    -0.79500
C7          C  0.86304875  0.87344252  0.02899783     0.80500
N8          N  0.84217123  0.85188201  0.00216114    -0.77800
C9          C  0.86132529  0.86907245  0.47434347     0.82900
N10         N  0.90193050  0.90816882  0.47353534    -0.77800
C11         C  0.92290948  0.92982527  0.50046487     0.83000
N12         N  0.90331751  0.91229125  0.02798609    -0.79500
C13         C  0.71728655  0.36446625  0.27850735     0.80500
N14         N  0.73866837  0.34345319  0.25186875    -0.77800
C15         C  0.72137596  0.36267830  0.22387170     0.82900
N16         N  0.68228852  0.40356885  0.22267903    -0.77800
C17         C  0.66080714  0.42472970  0.24943086     0.83000
N18         N  0.67848307  0.40497321  0.27711328    -0.79500
C19         C  0.86836409  0.22542081  0.02639525     0.80500
N20         N  0.85066548  0.24430010  0.99840006    -0.77800
C21         C  0.87203352  0.22332334  0.47175359     0.82900
N22         N  0.91127114  0.18323375  0.47313719    -0.77800
C23         C  0.92938318  0.16383188  0.50081468     0.83000
N24         N  0.90786483  0.18491119  0.02758063    -0.79500
C25         C  0.37598827  0.72746699  0.27833548     0.80500
N26         N  0.41477854  0.68695351  0.27696487    -0.77800
C27         C  0.43221602  0.66687230  0.24928899     0.82900
N28         N  0.41049360  0.68768417  0.22250784    -0.77800
C29         C  0.37143338  0.72859858  0.22366728     0.83000
N30         N  0.35436263  0.74815213  0.25166541    -0.79500
C31         C  0.21970308  0.86070044  0.02601808     0.80500
N32         N  0.23752619  0.84198887  0.99799411    -0.77800
C33         C  0.21614718  0.86302717  0.47135000     0.82900
N34         N  0.17679261  0.90300035  0.47277634    -0.77800
C35         C  0.15857915  0.92221268  0.50048551     0.83000
N36         N  0.18012270  0.90110646  0.02723335    -0.79500
O37         O  0.98560092  0.98861234  0.47448927    -0.74200
O38         O  0.10136064  0.09648350  0.47427972    -0.74200
O39         O  0.09797128  0.98478648  0.47496175    -0.74300
O40         O  0.98894916  0.10037253  0.47515066    -0.74300
O41         O  0.99010936  0.10143743  0.02693611    -0.74300
O42         O  0.09927996  0.98573481  0.02674899    -0.74200
O43         O  0.10283578  0.09775491  0.02606755    -0.74200
O44         O  0.98667396  0.98956193  0.02628328    -0.74300
Ni45       Ni  0.04343167  0.04254008  0.47288846     1.25400
Ni46       Ni  0.04477949  0.04365452  0.02837854     1.25400
C47         C  0.96712241  0.97135480  0.00033941     0.88000
C48         C  0.12110635  0.11489090  0.00000015     0.87900
C49         C  0.11654351  0.96628083  0.50086872     0.88000
C50         C  0.97152624  0.11982157  0.50110484     0.88100
O51         O  0.49248950  0.60415558  0.27494573    -0.74200
O52         O  0.60165619  0.48869399  0.27501439    -0.74200
O53         O  0.60477817  0.60050314  0.27530726    -0.74300
O54         O  0.48932841  0.49238821  0.27603548    -0.74300
O55         O  0.48771009  0.49053508  0.22425020    -0.74300
O56         O  0.60344189  0.59918381  0.22351344    -0.74200
O57         O  0.60036271  0.48722661  0.22322908    -0.74200
O58         O  0.49091320  0.60262713  0.22316019    -0.74300
Ni59       Ni  0.54710611  0.54648016  0.27715680     1.25400
Ni60       Ni  0.54554310  0.54483531  0.22166722     1.25400
C61         C  0.47386892  0.62244833  0.24899776     0.88000
C62         C  0.61895360  0.46899516  0.24909174     0.87900
C63         C  0.62296805  0.61773284  0.24938860     0.88000
C64         C  0.46966921  0.47353280  0.25040051     0.88100
C65         C  0.22555849  0.21513704  0.47224891     0.80500
N66         N  0.18538964  0.17562698  0.47245722    -0.77800
C67         C  0.16517641  0.15666702  0.49963591     0.82900
N68         N  0.18525197  0.17725793  0.02672339    -0.77800
C69         C  0.22526839  0.21657124  0.02718012     0.83000
N70         N  0.24554724  0.23578234  0.49981464    -0.79500
C71         C  0.36699644  0.37010697  0.22361294     0.80500
N72         N  0.40635809  0.41005554  0.22394105    -0.77800
C73         C  0.42610937  0.43124879  0.25095082     0.82900
N74         N  0.40628095  0.41219925  0.27820452    -0.77800
C75         C  0.36674813  0.37205732  0.27854208     0.83000
N76         N  0.34704815  0.35085203  0.25104110    -0.79500
C77         C  0.33057236  0.33348388  0.36278951     0.16200
C78         C  0.32729964  0.32941322  0.39524708    -0.32800
C79         C  0.29254011  0.28857247  0.40744682     0.20600
C80         C  0.26240848  0.25343920  0.38808088     0.02800
C81         C  0.26570303  0.25749218  0.35563196    -0.22600
C82         C  0.30043828  0.29833483  0.34343488     0.12000
S83         S  0.37068527  0.37986398  0.34355839    -0.06200
C84         C  0.34691480  0.35175417  0.30889525    -0.09700
C85         C  0.30948292  0.30866351  0.31248484    -0.26300
S86         S  0.22212916  0.20717661  0.40727078    -0.03500
C87         C  0.24578007  0.23530029  0.44194856    -0.17000
C88         C  0.28335257  0.27829464  0.43839701    -0.15000
H89         H  0.35084287  0.35692071  0.41033063     0.20400
H90         H  0.24212521  0.23001362  0.34054832     0.16500
H91         H  0.29032935  0.28576921  0.29351895     0.19000
H92         H  0.30242034  0.30121171  0.45738087     0.12300
C93         C  0.33363352  0.32953415  0.13906520     0.16200
C94         C  0.33192663  0.32479379  0.10659967    -0.32800
C95         C  0.29396691  0.28734496  0.09338221     0.20600
C96         C  0.25940713  0.25603498  0.11181865     0.02800
C97         C  0.26114244  0.26074538  0.14429311    -0.22600
C98         C  0.29906754  0.29824848  0.15751170     0.12000
S99         S  0.37657884  0.37274881  0.15928558    -0.06200
C100        C  0.34791821  0.34864546  0.19314325    -0.09700
C101        C  0.30705622  0.30895416  0.18866650    -0.26300
S102        S  0.21623633  0.21307746  0.09155359    -0.03500
C103        C  0.24475133  0.23741812  0.05770580    -0.17000
C104        C  0.28578929  0.27690417  0.06222197    -0.15000
H105        H  0.35896100  0.34932723  0.09228378     0.20400
H106        H  0.23404958  0.23627321  0.15860726     0.16500
H107        H  0.28444645  0.28916473  0.20708726     0.19000
H108        H  0.30829080  0.29685589  0.04381496     0.12300
C109        C  0.29687823  0.78807028  0.09282333     0.16200
C110        C  0.33159250  0.75483710  0.11122891    -0.32800
C111        C  0.32927193  0.76211866  0.14351628     0.20600
C112        C  0.29391025  0.80079350  0.15684017     0.02800
C113        C  0.25916945  0.83399571  0.13843703    -0.22600
C114        C  0.26148501  0.82670981  0.10615258     0.12000
S115        S  0.29389787  0.78576116  0.05328804    -0.06200
C116        C  0.24439394  0.83747733  0.05458271    -0.09700
C117        C  0.23114794  0.85517715  0.08433143    -0.26300
S118        S  0.29704352  0.80327918  0.19636622    -0.03500
C119        C  0.34653432  0.75155176  0.19508634    -0.17000
C120        C  0.35965967  0.73370881  0.16534450    -0.15000
H121        H  0.35923531  0.72465969  0.10082522     0.20400
H122        H  0.23155680  0.86420239  0.14883964     0.16500
H123        H  0.20123957  0.88733047  0.08971206     0.19000
H124        H  0.38959131  0.70157260  0.15997272     0.12300
C125        C  0.33712562  0.76196809  0.36212832     0.16200
C126        C  0.33174036  0.76394618  0.39440879    -0.32800
C127        C  0.29061675  0.79869617  0.40661516     0.20600
C128        C  0.25646818  0.83018116  0.38755965     0.02800
C129        C  0.26190279  0.82825918  0.35527936    -0.22600
C130        C  0.30296151  0.79343198  0.34306956     0.12000
S131        S  0.38367272  0.72157237  0.34282904    -0.06200
C132        C  0.35658295  0.74707351  0.30867539    -0.09700
C133        C  0.31407799  0.78523251  0.31230801    -0.26300
S134        S  0.20953132  0.87013732  0.40685528    -0.03500
C135        C  0.23633711  0.84430482  0.44099888    -0.17000
C136        C  0.27914940  0.80648873  0.43736475    -0.15000
H137        H  0.35830470  0.73936641  0.40933689     0.20400
H138        H  0.23524230  0.85273004  0.34034723     0.16500
H139        H  0.29187937  0.80515042  0.29348414     0.19000
H140        H  0.30115522  0.78634524  0.45618128     0.12300
C141        C  0.79321008  0.30014250  0.09315913     0.16200
C142        C  0.75969429  0.33454908  0.11156759    -0.32800
C143        C  0.76212255  0.32748106  0.14381274     0.20600
C144        C  0.79643570  0.28788960  0.15709813     0.02800
C145        C  0.82995823  0.25349271  0.13869006    -0.22600
C146        C  0.82754798  0.26057396  0.10644693     0.12000
S147        S  0.79602431  0.30215714  0.05367307    -0.06200
C148        C  0.84407124  0.24908394  0.05493892    -0.09700
C149        C  0.85693096  0.23114009  0.08463704    -0.26300
S150        S  0.79360637  0.28584591  0.19658358    -0.03500
C151        C  0.74563555  0.33898189  0.19532688    -0.17000
C152        C  0.73278642  0.35694677  0.16562897    -0.15000
H153        H  0.73289065  0.36546758  0.10119944     0.20400
H154        H  0.85676332  0.22257601  0.14905829     0.16500
H155        H  0.88601612  0.19825299  0.08999103     0.19000
H156        H  0.70373158  0.38986274  0.16027923     0.12300
C157        C  0.83422329  0.25901748  0.38793611     0.16200
C158        C  0.83005981  0.26233750  0.35561481    -0.32800
C159        C  0.78931381  0.29749723  0.34332291     0.20600
C160        C  0.75427032  0.32799768  0.36233608     0.02800
C161        C  0.75840385  0.32464441  0.39466118    -0.22600
C162        C  0.79918539  0.28951556  0.40695390     0.12000
S163        S  0.88062739  0.21846493  0.40730460    -0.06200
C164        C  0.85243778  0.24274704  0.44142185    -0.09700
C165        C  0.80953249  0.28046494  0.43774314    -0.26300
S166        S  0.70808773  0.36878575  0.34295221    -0.03500
C167        C  0.73643481  0.34463752  0.30884303    -0.17000
C168        C  0.77916197  0.30673215  0.31253540    -0.15000
H169        H  0.85738903  0.23860859  0.34071631     0.20400
H170        H  0.73112500  0.34843034  0.40956048     0.16500
H171        H  0.78678890  0.29976828  0.45653320     0.19000
H172        H  0.80201201  0.28752151  0.29375676     0.12300
C173        C  0.80131705  0.79648845  0.34282843     0.16200
C174        C  0.83483889  0.83054174  0.36167302    -0.32800
C175        C  0.82756976  0.82790380  0.39386272     0.20600
C176        C  0.78866789  0.79286224  0.40669261     0.02800
C177        C  0.75518634  0.75877137  0.38785098    -0.22600
C178        C  0.76244656  0.76141888  0.35566333     0.12000
S179        S  0.80351578  0.79399027  0.30331364    -0.06200
C180        C  0.75146074  0.74512111  0.30397428    -0.09700
C181        C  0.73372851  0.73171676  0.33348316    -0.26300
S182        S  0.78622589  0.79558941  0.44619454    -0.03500
C183        C  0.83823902  0.84450492  0.44554529    -0.17000
C184        C  0.85616731  0.85772573  0.41604564    -0.15000
H185        H  0.86519850  0.85794892  0.35167222     0.20400
H186        H  0.72478100  0.73141141  0.39784973     0.16500
H187        H  0.70137451  0.70212639  0.33844783     0.19000
H188        H  0.88847089  0.88737297  0.41108668     0.12300
C189        C  0.82793840  0.83575294  0.11239009     0.16200
C190        C  0.82538445  0.83100254  0.14465018    -0.32800
C191        C  0.78975641  0.79093808  0.15649802     0.20600
C192        C  0.75797918  0.75719866  0.13712892     0.02800
C193        C  0.76045996  0.76201522  0.10486913    -0.22600
C194        C  0.79617037  0.80200764  0.09301903     0.12000
S195        S  0.86923932  0.88115516  0.09350916    -0.06200
C196        C  0.84356638  0.85423480  0.05912579    -0.09700
C197        C  0.80484684  0.81252112  0.06235460    -0.26300
S198        S  0.71722158  0.71130449  0.15600785    -0.03500
C199        C  0.74324702  0.73791511  0.19038453    -0.17000
C200        C  0.78154464  0.78001141  0.18715540    -0.15000
H201        H  0.85019702  0.85722534  0.15982900     0.20400
H202        H  0.73577798  0.73567456  0.08968838     0.16500
H203        H  0.78466006  0.79064317  0.04333418     0.17400
H204        H  0.80197922  0.80166946  0.20617306     0.12300
C205        C  0.72799362  0.72088936  0.77518526     0.80500
N206        N  0.68799645  0.68119762  0.77604440    -0.77800
C207        C  0.66665516  0.65979117  0.74914401     0.82900
N208        N  0.68519723  0.67825416  0.72158608    -0.77800
C209        C  0.72480929  0.71776861  0.72052409     0.83000
N210        N  0.74612266  0.73900044  0.74733968    -0.79500
C211        C  0.86304883  0.87344257  0.52899787     0.80500
N212        N  0.84217129  0.85188201  0.50216120    -0.77800
C213        C  0.86132533  0.86907241  0.97434344     0.82900
N214        N  0.90193066  0.90816870  0.97353534    -0.77800
C215        C  0.92290947  0.92982524  0.00046489     0.83000
N216        N  0.90331761  0.91229126  0.52798609    -0.79500
C217        C  0.71728646  0.36446633  0.77850733     0.80500
N218        N  0.73866839  0.34345337  0.75186873    -0.77800
C219        C  0.72137594  0.36267843  0.72387168     0.82900
N220        N  0.68228841  0.40356886  0.72267899    -0.77800
C221        C  0.66080703  0.42472970  0.74943084     0.83000
N222        N  0.67848291  0.40497321  0.77711325    -0.79500
C223        C  0.86836401  0.22542088  0.52639524     0.80500
N224        N  0.85066540  0.24430020  0.49840006    -0.77800
C225        C  0.87203346  0.22332313  0.97175360     0.82900
N226        N  0.91127101  0.18323346  0.97313719    -0.77800
C227        C  0.92938307  0.16383169  0.00081469     0.83000
N228        N  0.90786483  0.18491132  0.52758062    -0.79500
C229        C  0.37598828  0.72746697  0.77833547     0.80500
N230        N  0.41477846  0.68695340  0.77696485    -0.77800
C231        C  0.43221604  0.66687226  0.74928898     0.82900
N232        N  0.41049364  0.68768414  0.72250781    -0.77800
C233        C  0.37143333  0.72859846  0.72366725     0.83000
N234        N  0.35436265  0.74815210  0.75166537    -0.79500
C235        C  0.21970315  0.86070053  0.52601808     0.80500
N236        N  0.23752627  0.84198901  0.49799413    -0.77800
C237        C  0.21614727  0.86302723  0.97134998     0.82900
N238        N  0.17679283  0.90300049  0.97277631    -0.77800
C239        C  0.15857919  0.92221268  0.00048549     0.83000
N240        N  0.18012272  0.90110654  0.52723337    -0.79500
O241        O  0.98560083  0.98861241  0.97448933    -0.74200
O242        O  0.10136045  0.09648360  0.97427974    -0.74200
O243        O  0.09797117  0.98478644  0.97496174    -0.74300
O244        O  0.98894909  0.10037257  0.97515069    -0.74300
O245        O  0.99010932  0.10143730  0.52693607    -0.74300
O246        O  0.09927999  0.98573487  0.52674900    -0.74200
O247        O  0.10283582  0.09775490  0.52606754    -0.74200
O248        O  0.98667409  0.98956181  0.52628325    -0.74300
Ni249      Ni  0.04343157  0.04254013  0.97288851     1.25400
Ni250      Ni  0.04477952  0.04365449  0.52837851     1.25400
C251        C  0.96712250  0.97135473  0.50033937     0.88000
C252        C  0.12110643  0.11489087  0.50000014     0.87900
C253        C  0.11654347  0.96628077  0.00086870     0.88000
C254        C  0.97152620  0.11982158  0.00110487     0.88100
O255        O  0.49248945  0.60415556  0.77494572    -0.74200
O256        O  0.60165620  0.48869403  0.77501438    -0.74200
O257        O  0.60477826  0.60050304  0.77530723    -0.74300
O258        O  0.48932825  0.49238828  0.77603555    -0.74300
O259        O  0.48771004  0.49053508  0.72425027    -0.74300
O260        O  0.60344189  0.59918366  0.72351341    -0.74200
O261        O  0.60036263  0.48722648  0.72322908    -0.74200
O262        O  0.49091323  0.60262700  0.72316019    -0.74300
Ni263      Ni  0.54710608  0.54648017  0.77715684     1.25400
Ni264      Ni  0.54554308  0.54483521  0.72166727     1.25400
C265        C  0.47386891  0.62244825  0.74899772     0.88000
C266        C  0.61895356  0.46899513  0.74909172     0.87900
C267        C  0.62296812  0.61773267  0.74938855     0.88000
C268        C  0.46966914  0.47353279  0.75040058     0.88100
C269        C  0.22555852  0.21513700  0.97224886     0.80500
N270        N  0.18538968  0.17562690  0.97245717    -0.77800
C271        C  0.16517645  0.15666695  0.99963586     0.82900
N272        N  0.18525185  0.17725807  0.52672345    -0.77800
C273        C  0.22526839  0.21657129  0.52718017     0.83000
N274        N  0.24554714  0.23578241  0.99981459    -0.79500
C275        C  0.36699648  0.37010677  0.72361296     0.80500
N276        N  0.40635811  0.41005535  0.72394107    -0.77800
C277        C  0.42610940  0.43124861  0.75095083     0.82900
N278        N  0.40628089  0.41219906  0.77820452    -0.77800
C279        C  0.36674804  0.37205718  0.77854206     0.83000
N280        N  0.34704810  0.35085185  0.75104110    -0.79500
C281        C  0.33057234  0.33348388  0.86278949     0.16200
C282        C  0.32729976  0.32941330  0.89524705    -0.32800
C283        C  0.29254019  0.28857254  0.90744680     0.20600
C284        C  0.26240867  0.25343912  0.88808090     0.02800
C285        C  0.26570315  0.25749207  0.85563199    -0.22600
C286        C  0.30043821  0.29833484  0.84343490     0.12000
S287        S  0.37068524  0.37986392  0.84355833    -0.06200
C288        C  0.34691470  0.35175405  0.80889522    -0.09700
C289        C  0.30948278  0.30866346  0.81248487    -0.26300
S290        S  0.22212942  0.20717645  0.90727081    -0.03500
C291        C  0.24578011  0.23530035  0.94194855    -0.17000
C292        C  0.28335269  0.27829465  0.93839697    -0.15000
H293        H  0.35084309  0.35692070  0.91033052     0.20400
H294        H  0.24212543  0.23001344  0.84054838     0.16500
H295        H  0.29032915  0.28576901  0.79351901     0.19000
H296        H  0.30242063  0.30121162  0.95738086     0.12300
C297        C  0.33363347  0.32953418  0.63906526     0.16200
C298        C  0.33192661  0.32479397  0.60659970    -0.32800
C299        C  0.29396701  0.28734500  0.59338222     0.20600
C300        C  0.25940726  0.25603493  0.61181862     0.02800
C301        C  0.26114244  0.26074533  0.64429309    -0.22600
C302        C  0.29906746  0.29824846  0.65751173     0.12000
S303        S  0.37657902  0.37274858  0.65928568    -0.06200
C304        C  0.34791825  0.34864526  0.69314329    -0.09700
C305        C  0.30705624  0.30895398  0.68866656    -0.26300
S306        S  0.21623624  0.21307769  0.59155355    -0.03500
C307        C  0.24475131  0.23741831  0.55770581    -0.17000
C308        C  0.28578943  0.27690429  0.56222193    -0.15000
H309        H  0.35896084  0.34932748  0.59228386     0.20400
H310        H  0.23404955  0.23627313  0.65860720     0.16500
H311        H  0.28444662  0.28916448  0.70708734     0.19000
H312        H  0.30829093  0.29685587  0.54381500     0.12300
C313        C  0.29687830  0.78807041  0.59282332     0.16200
C314        C  0.33159266  0.75483724  0.61122887    -0.32800
C315        C  0.32927189  0.76211858  0.64351625     0.20600
C316        C  0.29391013  0.80079331  0.65684016     0.02800
C317        C  0.25916941  0.83399573  0.63843706    -0.22600
C318        C  0.26148505  0.82670990  0.60615259     0.12000
S319        S  0.29389808  0.78576140  0.55328802    -0.06200
C320        C  0.24439404  0.83747745  0.55458271    -0.09700
C321        C  0.23114806  0.85517729  0.58433143    -0.26300
S322        S  0.29704340  0.80327894  0.69636618    -0.03500
C323        C  0.34653424  0.75155156  0.69508629    -0.17000
C324        C  0.35965976  0.73370870  0.66534444    -0.15000
H325        H  0.35923563  0.72466008  0.60082515     0.20400
H326        H  0.23155694  0.86420237  0.64883971     0.16500
H327        H  0.20123970  0.88733060  0.58971205     0.19000
H328        H  0.38959153  0.70157277  0.65997266     0.12300
C329        C  0.33712565  0.76196821  0.86212832     0.16200
C330        C  0.33174034  0.76394630  0.89440876    -0.32800
C331        C  0.29061676  0.79869622  0.90661515     0.20600
C332        C  0.25646804  0.83018105  0.88755961     0.02800
C333        C  0.26190261  0.82825903  0.85527933    -0.22600
C334        C  0.30296144  0.79343198  0.84306953     0.12000
S335        S  0.38367290  0.72157266  0.84282910    -0.06200
C336        C  0.35658297  0.74707354  0.80867540    -0.09700
C337        C  0.31407788  0.78523240  0.81230798    -0.26300
S338        S  0.20953119  0.87013715  0.90685524    -0.03500
C339        C  0.23633729  0.84430497  0.94099886    -0.17000
C340        C  0.27914957  0.80648893  0.93736474    -0.15000
H341        H  0.35830486  0.73936652  0.90933691     0.20400
H342        H  0.23524198  0.85272982  0.84034720     0.16500
H343        H  0.29187911  0.80515014  0.79348408     0.19000
H344        H  0.30115542  0.78634543  0.95618129     0.12300
C345        C  0.79321000  0.30014248  0.59315911     0.16200
C346        C  0.75969436  0.33454914  0.61156760    -0.32800
C347        C  0.76212251  0.32748104  0.64381275     0.20600
C348        C  0.79643565  0.28788959  0.65709816     0.02800
C349        C  0.82995809  0.25349263  0.63869007    -0.22600
C350        C  0.82754778  0.26057384  0.60644693     0.12000
S351        S  0.79602448  0.30215736  0.55367306    -0.06200
C352        C  0.84407113  0.24908393  0.55493890    -0.09700
C353        C  0.85693081  0.23114009  0.58463702    -0.26300
S354        S  0.79360655  0.28584616  0.69658364    -0.03500
C355        C  0.74563547  0.33898192  0.69532688    -0.17000
C356        C  0.73278634  0.35694677  0.66562895    -0.15000
H357        H  0.73289088  0.36546784  0.60119945     0.20400
H358        H  0.85676322  0.22257598  0.64905826     0.16500
H359        H  0.88601610  0.19825292  0.58999103     0.19000
H360        H  0.70373163  0.38986280  0.66027918     0.12300
C361        C  0.83422332  0.25901732  0.88793613     0.16200
C362        C  0.83005983  0.26233745  0.85561483    -0.32800
C363        C  0.78931383  0.29749720  0.84332288     0.20600
C364        C  0.75427029  0.32799759  0.86233604     0.02800
C365        C  0.75840400  0.32464450  0.89466115    -0.22600
C366        C  0.79918553  0.28951557  0.90695389     0.12000
S367        S  0.88062750  0.21846480  0.90730467    -0.06200
C368        C  0.85243778  0.24274688  0.94142186    -0.09700
C369        C  0.80953267  0.28046505  0.93774313    -0.26300
S370        S  0.70808758  0.36878558  0.84295218    -0.03500
C371        C  0.73643476  0.34463757  0.80884300    -0.17000
C372        C  0.77916195  0.30673222  0.81253535    -0.15000
H373        H  0.85738917  0.23860851  0.84071631     0.20400
H374        H  0.73112531  0.34843054  0.90956041     0.16500
H375        H  0.78678923  0.29976860  0.95653317     0.19000
H376        H  0.80201193  0.28752165  0.79375668     0.12300
C377        C  0.80131714  0.79648818  0.84282840     0.16200
C378        C  0.83483885  0.83054163  0.86167298    -0.32800
C379        C  0.82756960  0.82790387  0.89386268     0.20600
C380        C  0.78866769  0.79286236  0.90669257     0.02800
C381        C  0.75518632  0.75877131  0.88785095    -0.22600
C382        C  0.76244666  0.76141862  0.85566331     0.12000
S383        S  0.80351569  0.79399010  0.80331360    -0.06200
C384        C  0.75146063  0.74512101  0.80397426    -0.09700
C385        C  0.73372845  0.73171661  0.83348315    -0.26300
S386        S  0.78622569  0.79558962  0.94619450    -0.03500
C387        C  0.83823892  0.84450506  0.94554524    -0.17000
C388        C  0.85616723  0.85772571  0.91604559    -0.15000
H389        H  0.86519849  0.85794885  0.85167220     0.20400
H390        H  0.72478094  0.73141136  0.89784971     0.16500
H391        H  0.70137435  0.70212643  0.83844779     0.19000
H392        H  0.88847109  0.88737279  0.91108660     0.12300
C393        C  0.82793842  0.83575288  0.61239013     0.16200
C394        C  0.82538438  0.83100263  0.64465023    -0.32800
C395        C  0.78975635  0.79093816  0.65649803     0.20600
C396        C  0.75797912  0.75719877  0.63712895     0.02800
C397        C  0.76045988  0.76201521  0.60486914    -0.22600
C398        C  0.79617034  0.80200765  0.59301906     0.12000
S399        S  0.86923932  0.88115510  0.59350919    -0.06200
C400        C  0.84356644  0.85423479  0.55912582    -0.09700
C401        C  0.80484687  0.81252120  0.56235467    -0.26300
S402        S  0.71722167  0.71130454  0.65600791    -0.03500
C403        C  0.74324713  0.73791511  0.69038456    -0.17000
C404        C  0.78154474  0.78001148  0.68715545    -0.15000
H405        H  0.85019681  0.85722547  0.65982905     0.20400
H406        H  0.73577812  0.73567457  0.58968844     0.16500
H407        H  0.78465998  0.79064319  0.54333416     0.17400
H408        H  0.80197930  0.80166943  0.70617301     0.12300
loop_ 
_geom_bond_atom_site_label_1 
_geom_bond_atom_site_label_2 
_geom_bond_distance 
_geom_bond_site_symmetry_2 
_ccdc_geom_bond_type 
C1            N2   1.362       .  A
C1            N6   1.358       .  A
C1          C180   1.475       .  S
N2            C3   1.362       .  A
C3            N4   1.353       .  A
C3           C63   1.465       .  S
N4            C5   1.353       .  A
C5            N6   1.357       .  A
C5          C199   1.465       .  S
C7            N8   1.357       .  A
C7           N12   1.353       .  A
C7          C196   1.465       .  S
N8          C213   1.358   1_554  A
C9           N10   1.362       .  A
C9          N212   1.358       .  A
C9          C183   1.475       .  S
N10          C11   1.362       .  A
C11         N216   1.353       .  A
C11         C251   1.465       .  S
N12         C215   1.353       .  A
C13          N14   1.356       .  A
C13          N18   1.353       .  A
C13         C167   1.467       .  S
N14          C15   1.358       .  A
C15          N16   1.364       .  A
C15         C151   1.477       .  S
N16          C17   1.363       .  A
C17          N18   1.354       .  A
C17          C62   1.468       .  S
C19          N20   1.358   1_554  A
C19          N24   1.364       .  A
C19         C148   1.477       .  S
N20         C225   1.356       .  A
C21          N22   1.353       .  A
C21         N224   1.356       .  A
C21         C164   1.467       .  S
N22          C23   1.354       .  A
C23         N228   1.363       .  A
C23          C50   1.468       .  S
N24         C227   1.363       .  A
C25          N26   1.352       .  A
C25          N30   1.357       .  A
C25         C132   1.467       .  S
N26          C27   1.354       .  A
C27          N28   1.363       .  A
C27          C61   1.467       .  S
N28          C29   1.364       .  A
C29          N30   1.359       .  A
C29         C119   1.477       .  S
C31          N32   1.359   1_554  A
C31          N36   1.364       .  A
C31         C116   1.477       .  S
N32         C237   1.357       .  A
C33          N34   1.353       .  A
C33         N236   1.357       .  A
C33         C135   1.467       .  S
N34          C35   1.354       .  A
C35         N240   1.363       .  A
C35          C49   1.467       .  S
N36         C239   1.363       .  A
O37         Ni45   1.912   1_665  S
O37         C251   1.278       .  A
O38         Ni45   1.912       .  S
O38         C252   1.278       .  A
O39         Ni45   1.916   1_565  S
O39          C49   1.283       .  A
O40         Ni45   1.917   1_655  S
O40          C50   1.283       .  A
O41         Ni46   1.917   1_655  S
O41         C254   1.279       .  A
O42         Ni46   1.917   1_565  S
O42         C253   1.279       .  A
O43         Ni46   1.920       .  S
O43          C48   1.283       .  A
O44         Ni46   1.918   1_665  S
O44          C47   1.283       .  A
Ni45       Ni250   2.392       .  S
Ni46       Ni249   2.392   1_554  S
C47         C215   1.465       .  S
C47         O241   1.278   1_554  A
C48         C271   1.467   1_554  S
C48         O242   1.278   1_554  A
C49         O246   1.279       .  A
C50         O245   1.279       .  A
O51         Ni59   1.916       .  S
O51          C61   1.283       .  A
O52         Ni59   1.917       .  S
O52          C62   1.283       .  A
O53         Ni59   1.911       .  S
O53          C63   1.278       .  A
O54         Ni59   1.911       .  S
O54          C64   1.278       .  A
O55         Ni60   1.921       .  S
O55          C64   1.284       .  A
O56         Ni60   1.918       .  S
O56          C63   1.283       .  A
O57         Ni60   1.917       .  S
O57          C62   1.279       .  A
O58         Ni60   1.917       .  S
O58          C61   1.279       .  A
Ni59        Ni60   2.392       .  S
C64          C73   1.467       .  S
C65          N66   1.361       .  A
C65          N70   1.368       .  A
C65          C87   1.485       .  S
N66          C67   1.357       .  A
C67         N272   1.350       .  A
C67         C252   1.467       .  S
N68          C69   1.355       .  A
N68         C271   1.350   1_554  A
C69         N274   1.367   1_554  A
C69         C103   1.477       .  S
N70         C273   1.367       .  A
C71          N72   1.355       .  A
C71          N76   1.367       .  A
C71         C100   1.477       .  S
N72          C73   1.350       .  A
C73          N74   1.357       .  A
N74          C75   1.361       .  A
C75          N76   1.368       .  A
C75          C84   1.485       .  S
C77          S83   1.708       .  A
C77          C82   1.386       .  A
C77          C78   1.406       .  A
C78          C79   1.405       .  A
C78          H89   1.083       .  S
C79          C88   1.379       .  A
C79          C80   1.386       .  A
C80          S86   1.707       .  A
C80          C81   1.406       .  A
C81          C82   1.405       .  A
C81          H90   1.083       .  S
C82          C85   1.379       .  A
S83          C84   1.728       .  A
C84          C85   1.390       .  A
C85          H91   1.083       .  S
S86          C87   1.728       .  A
C87          C88   1.390       .  A
C88          H92   1.083       .  S
C93          S99   1.700       .  A
C93          C98   1.387       .  A
C93          C94   1.403       .  A
C94          C95   1.401       .  A
C94         H105   1.083       .  S
C95         C104   1.377       .  A
C95          C96   1.387       .  A
C96         S102   1.700       .  A
C96          C97   1.403       .  A
C97          C98   1.401       .  A
C97         H106   1.083       .  S
C98         C101   1.377       .  A
S99         C100   1.727       .  A
C100        C101   1.387       .  A
C101        H107   1.083       .  S
S102        C103   1.727       .  A
C103        C104   1.386       .  A
C104        H108   1.083       .  S
C109        S115   1.705       .  A
C109        C114   1.387       .  A
C109        C110   1.403       .  A
C110        C111   1.403       .  A
C110        H121   1.083       .  S
C111        C120   1.374       .  A
C111        C112   1.387       .  A
C112        S118   1.705       .  A
C112        C113   1.403       .  A
C113        C114   1.403       .  A
C113        H122   1.083       .  S
C114        C117   1.374       .  A
S115        C116   1.726       .  A
C116        C117   1.388       .  A
C117        H123   1.083       .  S
S118        C119   1.725       .  A
C119        C120   1.388       .  A
C120        H124   1.083       .  S
C125        S131   1.702       .  A
C125        C130   1.387       .  A
C125        C126   1.399       .  A
C126        C127   1.400       .  A
C126        H137   1.083       .  S
C127        C136   1.368       .  A
C127        C128   1.387       .  A
C128        S134   1.702       .  A
C128        C129   1.399       .  A
C129        C130   1.400       .  A
C129        H138   1.083       .  S
C130        C133   1.368       .  A
S131        C132   1.723       .  A
C132        C133   1.384       .  A
C133        H139   1.083       .  S
S134        C135   1.723       .  A
C135        C136   1.384       .  A
C136        H140   1.083       .  S
C141        S147   1.705       .  A
C141        C146   1.387       .  A
C141        C142   1.403       .  A
C142        C143   1.403       .  A
C142        H153   1.083       .  S
C143        C152   1.374       .  A
C143        C144   1.387       .  A
C144        S150   1.705       .  A
C144        C145   1.403       .  A
C145        C146   1.403       .  A
C145        H154   1.083       .  S
C146        C149   1.374       .  A
S147        C148   1.726       .  A
C148        C149   1.387       .  A
C149        H155   1.083       .  S
S150        C151   1.726       .  A
C151        C152   1.387       .  A
C152        H156   1.083       .  S
C157        S163   1.702       .  A
C157        C162   1.387       .  A
C157        C158   1.399       .  A
C158        C159   1.399       .  A
C158        H169   1.083       .  S
C159        C168   1.367       .  A
C159        C160   1.387       .  A
C160        S166   1.702       .  A
C160        C161   1.399       .  A
C161        C162   1.400       .  A
C161        H170   1.083       .  S
C162        C165   1.367       .  A
S163        C164   1.723       .  A
C164        C165   1.385       .  A
C165        H171   1.083       .  S
S166        C167   1.723       .  A
C167        C168   1.384       .  A
C168        H172   1.083       .  S
C173        S179   1.705       .  A
C173        C178   1.387       .  A
C173        C174   1.402       .  A
C174        C175   1.402       .  A
C174        H185   1.083       .  S
C175        C184   1.373       .  A
C175        C176   1.387       .  A
C176        S182   1.705       .  A
C176        C177   1.402       .  A
C177        C178   1.402       .  A
C177        H186   1.083       .  S
C178        C181   1.372       .  A
S179        C180   1.725       .  A
C180        C181   1.387       .  A
C181        H187   1.083       .  S
S182        C183   1.725       .  A
C183        C184   1.387       .  A
C184        H188   1.083       .  S
C189        S195   1.701       .  A
C189        C194   1.387       .  A
C189        C190   1.398       .  A
C190        C191   1.399       .  A
C190        H201   1.083       .  S
C191        C200   1.366       .  A
C191        C192   1.387       .  A
C192        S198   1.701       .  A
C192        C193   1.398       .  A
C193        C194   1.399       .  A
C193        H202   1.083       .  S
C194        C197   1.367       .  A
S195        C196   1.723       .  A
C196        C197   1.384       .  A
C197        H203   1.083       .  S
S198        C199   1.723       .  A
C199        C200   1.384       .  A
C200        H204   1.083       .  S
C205        N206   1.362       .  A
C205        N210   1.358       .  A
C205        C384   1.475       .  S
N206        C207   1.362       .  A
C207        N208   1.353       .  A
C207        C267   1.465       .  S
N208        C209   1.353       .  A
C209        N210   1.357       .  A
C209        C403   1.465       .  S
C211        N212   1.357       .  A
C211        N216   1.353       .  A
C211        C400   1.465       .  S
C213        N214   1.362       .  A
C213        C387   1.475       .  S
N214        C215   1.362   1_556  A
C217        N218   1.356       .  A
C217        N222   1.353       .  A
C217        C371   1.467       .  S
N218        C219   1.358       .  A
C219        N220   1.364       .  A
C219        C355   1.477       .  S
N220        C221   1.363       .  A
C221        N222   1.354       .  A
C221        C266   1.468       .  S
C223        N224   1.358       .  A
C223        N228   1.364       .  A
C223        C352   1.477       .  S
C225        N226   1.353       .  A
C225        C368   1.467       .  S
N226        C227   1.354   1_556  A
C227        C254   1.468       .  S
C229        N230   1.352       .  A
C229        N234   1.357       .  A
C229        C336   1.467       .  S
N230        C231   1.354       .  A
C231        N232   1.363       .  A
C231        C265   1.467       .  S
N232        C233   1.364       .  A
C233        N234   1.359       .  A
C233        C323   1.477       .  S
C235        N236   1.359       .  A
C235        N240   1.364       .  A
C235        C320   1.477       .  S
C237        N238   1.353       .  A
C237        C339   1.467       .  S
N238        C239   1.354   1_556  A
C239        C253   1.467       .  S
O241       Ni249   1.912   1_665  S
O242       Ni249   1.912       .  S
O243       Ni249   1.916   1_565  S
O243        C253   1.283   1_556  A
O244       Ni249   1.917   1_655  S
O244        C254   1.283   1_556  A
O245       Ni250   1.917   1_655  S
O246       Ni250   1.917   1_565  S
O247       Ni250   1.920       .  S
O247        C252   1.283       .  A
O248       Ni250   1.918   1_665  S
O248        C251   1.283       .  A
O255       Ni263   1.916       .  S
O255        C265   1.283       .  A
O256       Ni263   1.917       .  S
O256        C266   1.283       .  A
O257       Ni263   1.911       .  S
O257        C267   1.278       .  A
O258       Ni263   1.911       .  S
O258        C268   1.278       .  A
O259       Ni264   1.921       .  S
O259        C268   1.284       .  A
O260       Ni264   1.918       .  S
O260        C267   1.283       .  A
O261       Ni264   1.917       .  S
O261        C266   1.279       .  A
O262       Ni264   1.917       .  S
O262        C265   1.279       .  A
Ni263      Ni264   2.392       .  S
C268        C277   1.467       .  S
C269        N270   1.361       .  A
C269        N274   1.368       .  A
C269        C291   1.485       .  S
N270        C271   1.357       .  A
N272        C273   1.355       .  A
C273        C307   1.477       .  S
C275        N276   1.355       .  A
C275        N280   1.367       .  A
C275        C304   1.477       .  S
N276        C277   1.350       .  A
C277        N278   1.357       .  A
N278        C279   1.361       .  A
C279        N280   1.368       .  A
C279        C288   1.485       .  S
C281        S287   1.708       .  A
C281        C286   1.386       .  A
C281        C282   1.406       .  A
C282        C283   1.405       .  A
C282        H293   1.083       .  S
C283        C292   1.379       .  A
C283        C284   1.386       .  A
C284        S290   1.707       .  A
C284        C285   1.406       .  A
C285        C286   1.405       .  A
C285        H294   1.083       .  S
C286        C289   1.379       .  A
S287        C288   1.728       .  A
C288        C289   1.390       .  A
C289        H295   1.083       .  S
S290        C291   1.728       .  A
C291        C292   1.390       .  A
C292        H296   1.083       .  S
C297        S303   1.700       .  A
C297        C302   1.387       .  A
C297        C298   1.403       .  A
C298        C299   1.401       .  A
C298        H309   1.083       .  S
C299        C308   1.377       .  A
C299        C300   1.387       .  A
C300        S306   1.700       .  A
C300        C301   1.403       .  A
C301        C302   1.401       .  A
C301        H310   1.083       .  S
C302        C305   1.377       .  A
S303        C304   1.727       .  A
C304        C305   1.387       .  A
C305        H311   1.083       .  S
S306        C307   1.727       .  A
C307        C308   1.386       .  A
C308        H312   1.083       .  S
C313        S319   1.705       .  A
C313        C318   1.387       .  A
C313        C314   1.403       .  A
C314        C315   1.403       .  A
C314        H325   1.083       .  S
C315        C324   1.374       .  A
C315        C316   1.387       .  A
C316        S322   1.705       .  A
C316        C317   1.403       .  A
C317        C318   1.403       .  A
C317        H326   1.083       .  S
C318        C321   1.374       .  A
S319        C320   1.726       .  A
C320        C321   1.388       .  A
C321        H327   1.083       .  S
S322        C323   1.725       .  A
C323        C324   1.388       .  A
C324        H328   1.083       .  S
C329        S335   1.702       .  A
C329        C334   1.387       .  A
C329        C330   1.399       .  A
C330        C331   1.400       .  A
C330        H341   1.083       .  S
C331        C340   1.368       .  A
C331        C332   1.387       .  A
C332        S338   1.702       .  A
C332        C333   1.399       .  A
C333        C334   1.400       .  A
C333        H342   1.083       .  S
C334        C337   1.368       .  A
S335        C336   1.723       .  A
C336        C337   1.384       .  A
C337        H343   1.083       .  S
S338        C339   1.723       .  A
C339        C340   1.384       .  A
C340        H344   1.083       .  S
C345        S351   1.705       .  A
C345        C350   1.387       .  A
C345        C346   1.403       .  A
C346        C347   1.403       .  A
C346        H357   1.083       .  S
C347        C356   1.374       .  A
C347        C348   1.387       .  A
C348        S354   1.705       .  A
C348        C349   1.403       .  A
C349        C350   1.403       .  A
C349        H358   1.083       .  S
C350        C353   1.374       .  A
S351        C352   1.726       .  A
C352        C353   1.387       .  A
C353        H359   1.083       .  S
S354        C355   1.726       .  A
C355        C356   1.387       .  A
C356        H360   1.083       .  S
C361        S367   1.702       .  A
C361        C366   1.387       .  A
C361        C362   1.399       .  A
C362        C363   1.399       .  A
C362        H373   1.083       .  S
C363        C372   1.367       .  A
C363        C364   1.387       .  A
C364        S370   1.702       .  A
C364        C365   1.399       .  A
C365        C366   1.400       .  A
C365        H374   1.083       .  S
C366        C369   1.367       .  A
S367        C368   1.723       .  A
C368        C369   1.385       .  A
C369        H375   1.083       .  S
S370        C371   1.723       .  A
C371        C372   1.384       .  A
C372        H376   1.083       .  S
C377        S383   1.705       .  A
C377        C382   1.387       .  A
C377        C378   1.402       .  A
C378        C379   1.402       .  A
C378        H389   1.083       .  S
C379        C388   1.373       .  A
C379        C380   1.387       .  A
C380        S386   1.705       .  A
C380        C381   1.402       .  A
C381        C382   1.402       .  A
C381        H390   1.083       .  S
C382        C385   1.372       .  A
S383        C384   1.725       .  A
C384        C385   1.387       .  A
C385        H391   1.083       .  S
S386        C387   1.725       .  A
C387        C388   1.387       .  A
C388        H392   1.083       .  S
C393        S399   1.701       .  A
C393        C398   1.387       .  A
C393        C394   1.398       .  A
C394        C395   1.399       .  A
C394        H405   1.083       .  S
C395        C404   1.366       .  A
C395        C396   1.387       .  A
C396        S402   1.701       .  A
C396        C397   1.398       .  A
C397        C398   1.399       .  A
C397        H406   1.083       .  S
C398        C401   1.367       .  A
S399        C400   1.723       .  A
C400        C401   1.384       .  A
C401        H407   1.083       .  S
S402        C403   1.723       .  A
C403        C404   1.384       .  A
C404        H408   1.083       .  S
