geometry optimzed in LAMMPS
_audit_creation_date              2020-11-30 
_audit_creation_method            'lammps2cif' 
_symmetry_space_group_name_H-M    'P1' 
_symmetry_Int_Tables_number       1 
_symmetry_cell_setting            triclinic 
loop_ 
_symmetry_equiv_pos_as_xyz 
  x,y,z 
_cell_length_a                    48.09251924 
_cell_length_b                    47.95175414103017 
_cell_length_c                    43.68811888017371 
_cell_angle_alpha                 90.32749883670317 
_cell_angle_beta                  89.87266720449605 
_cell_angle_gamma                 89.94774724525892 
loop_ 
_atom_site_label 
_atom_site_type_symbol 
_atom_site_fract_x 
_atom_site_fract_y 
_atom_site_fract_z 
_atom_site_charge 
C1          C  0.67445468  0.67851864  0.23802116     0.04000
C2          C  0.68324532  0.68947380  0.20975050    -0.12100
C3          C  0.70249020  0.71139228  0.20822448     0.01500
C4          C  0.71267483  0.72298391  0.23556686    -0.10600
C5          C  0.70448629  0.71251007  0.26415255     0.04000
C6          C  0.68543815  0.69020612  0.26516361    -0.10100
H7          H  0.67544842  0.68070665  0.18861618     0.09600
H8          H  0.72729949  0.74008884  0.23460311     0.07100
H9          H  0.67923869  0.68216877  0.28717670     0.07000
C10         C  0.81509615  0.81084522  0.48622791     0.04000
C11         C  0.80644420  0.79901835  0.01599998    -0.12100
C12         C  0.78579281  0.77841506  0.01694908     0.01500
C13         C  0.77906148  0.76460922  0.48664853    -0.10600
C14         C  0.78609024  0.77697830  0.45850964     0.04000
C15         C  0.80404923  0.80028416  0.45857534    -0.10100
H16         H  0.81262796  0.80904148  0.03712199     0.09600
H17         H  0.76521528  0.74684064  0.48709701     0.07100
H18         H  0.80972856  0.80993884  0.43713698     0.07000
C19         C  0.68934562  0.31757440  0.26297316     0.04000
C20         C  0.70238527  0.30853736  0.29006806    -0.12100
C21         C  0.72389513  0.28868687  0.28917991     0.01500
C22         C  0.73279831  0.27817789  0.26088043    -0.10600
C23         C  0.72010868  0.28653756  0.23371218     0.04000
C24         C  0.69818355  0.30588173  0.23481153    -0.10100
H25         H  0.69564035  0.31660070  0.31202039     0.09600
H26         H  0.74954942  0.26308540  0.25992995     0.07100
H27         H  0.68840233  0.31174000  0.21356553     0.07000
C28         C  0.82855428  0.19426986  0.51184801     0.04000
C29         C  0.82111661  0.20796306  0.48464599    -0.12100
C30         C  0.80202725  0.23003380  0.48470911     0.01500
C31         C  0.79074551  0.23915481  0.51251837    -0.10600
C32         C  0.76978854  0.19533404  0.04086175     0.04000
C33         C  0.79291285  0.17754977  0.03853178    -0.10100
H34         H  0.82999992  0.20145709  0.46303097     0.09600
H35         H  0.77587741  0.25610872  0.51263859     0.07100
H36         H  0.80304402  0.17119939  0.05938677     0.07000
C37         C  0.30665963  0.66800154  0.25732280     0.04000
C38         C  0.29361662  0.67671789  0.28445378    -0.12100
C39         C  0.27204076  0.69634970  0.28441201     0.01500
C40         C  0.26301973  0.70739455  0.25623732    -0.10600
C41         C  0.27542444  0.69877654  0.22833404     0.04000
C42         C  0.29735785  0.67917163  0.22941737    -0.10100
H43         H  0.30057288  0.66846882  0.30608497     0.09600
H44         H  0.24648164  0.72266889  0.25622399     0.07100
H45         H  0.30735153  0.67269596  0.20842574     0.07000
C46         C  0.17657754  0.80992998  0.50689728     0.04000
C47         C  0.18800736  0.80160406  0.03319479    -0.12100
C48         C  0.20640601  0.77873277  0.03460615     0.01500
C49         C  0.21478496  0.76513966  0.50777876    -0.10600
C50         C  0.20593884  0.77612096  0.47951591     0.04000
C51         C  0.18664801  0.79814454  0.47959765    -0.10100
H52         H  0.17947470  0.80980120  0.05424376     0.09600
H53         H  0.22938793  0.74798627  0.50793053     0.07100
H54         H  0.17903135  0.80593387  0.45802079     0.07000
O55         O  0.96490990  0.02583559  0.48990754    -0.72000
O56         O  0.02422466  0.96569552  0.48744683    -0.73000
O57         O  0.96497197  0.96643642  0.48842818    -0.61600
O58         O  0.02371362  0.02510635  0.48750861    -0.70100
O59         O  0.02367566  0.02724729  0.03382573    -0.69600
O60         O  0.96873399  0.96343407  0.03563461    -0.60900
O61         O  0.02739859  0.96838951  0.03506037    -0.73400
O62         O  0.96492219  0.02273846  0.03555828    -0.72100
Cu63       Cu  0.99440686  0.99575822  0.48656300     1.04600
Cu64       Cu  0.99617906  0.99548781  0.03677575     1.04300
C65         C  0.95674637  0.03535682  0.51586533     0.94200
C66         C  0.03284007  0.95567613  0.51283415     0.93300
C67         C  0.95496731  0.95743928  0.51357899     0.85400
C68         C  0.03417030  0.03405526  0.51248911     0.91700
O69         O  0.52788224  0.46326369  0.22830943    -0.72000
O70         O  0.46548001  0.51828333  0.22740970    -0.73000
O71         O  0.52449366  0.52203242  0.22860772    -0.61600
O72         O  0.46886843  0.45938162  0.22793228    -0.70100
O73         O  0.46808829  0.46020183  0.27872429    -0.69600
O74         O  0.52373203  0.52232418  0.27940802    -0.60900
O75         O  0.46464645  0.51941253  0.27819274    -0.73400
O76         O  0.52743698  0.46311879  0.27909629    -0.72100
Cu77       Cu  0.49668021  0.49072592  0.22633026     1.04600
Cu78       Cu  0.49593563  0.49124714  0.28066180     1.04300
C79         C  0.53772912  0.45462371  0.25363982     0.94200
C80         C  0.45520194  0.52761648  0.25239499     0.93300
C81         C  0.53306776  0.53185048  0.25417906     0.85400
C82         C  0.45954799  0.45009007  0.25334355     0.91700
C83         C  0.17544905  0.17928755  0.48457279     0.04000
C84         C  0.17195110  0.20399617  0.01007967    -0.12100
C85         C  0.19278792  0.22443620  0.01066376     0.01500
C86         C  0.21705220  0.22058886  0.48432467    -0.10600
C87         C  0.20910115  0.20795561  0.45654765     0.04000
C88         C  0.18826973  0.18724620  0.45690776    -0.10100
H89         H  0.16203758  0.19841474  0.03129920     0.09600
H90         H  0.23273002  0.23676245  0.48430797     0.07100
H91         H  0.18259629  0.17685185  0.43578159     0.07000
C92         C  0.31093298  0.31122743  0.23487237     0.04000
C93         C  0.29864286  0.30455251  0.20661603    -0.12100
C94         C  0.27689562  0.28523402  0.20432324     0.01500
C95         C  0.26686160  0.27268421  0.23114903    -0.10600
C96         C  0.27826601  0.27925254  0.25997711     0.04000
C97         C  0.30042057  0.29849015  0.26151548    -0.10100
H98         H  0.30582644  0.31467863  0.18604973     0.09600
H99         H  0.25053571  0.25727364  0.22950226     0.07100
H100        H  0.30928630  0.30362399  0.28346958     0.07000
C101        C  0.23849441  0.24466695  0.32704906     0.16800
C102        C  0.21867977  0.23220715  0.34620282    -0.32200
C103        C  0.22598781  0.22775342  0.37686905     0.21200
C104        C  0.25193568  0.23523943  0.38790575     0.03400
C105        C  0.27187992  0.24739392  0.36864250    -0.21900
C106        C  0.26447813  0.25203223  0.33801595     0.12600
S107        S  0.23329564  0.25264914  0.28950840    -0.05600
C108        C  0.26657338  0.26624758  0.28821786    -0.09000
C109        C  0.28069874  0.26427774  0.31593691    -0.25700
S110        S  0.25626371  0.22934636  0.42609028    -0.02800
C111        C  0.22263172  0.21668770  0.42744439    -0.16300
C112        C  0.20918899  0.21690908  0.39930981    -0.14300
H113        H  0.19828769  0.22663134  0.33768340     0.21100
H114        H  0.29209828  0.25343103  0.37728781     0.17100
H115        H  0.30176823  0.27125344  0.31994775     0.19600
H116        H  0.18788315  0.21046340  0.39561243     0.13000
C117        C  0.25666714  0.26991501  0.12032132     0.16800
C118        C  0.25611776  0.26621073  0.08849139    -0.32200
C119        C  0.23184825  0.25515604  0.07553948     0.21200
C120        C  0.20903805  0.24846323  0.09343874     0.03400
C121        C  0.20948642  0.25240895  0.12526550    -0.21900
C122        C  0.23391272  0.26310617  0.13827443     0.12600
S123        S  0.28443154  0.28215653  0.14038561    -0.05600
C124        C  0.26535406  0.27808573  0.17365931    -0.09000
C125        C  0.23871422  0.26772184  0.16883917    -0.25700
S126        S  0.18216931  0.23408146  0.07355841    -0.02800
C127        C  0.20196158  0.23651859  0.04053828    -0.16300
C128        C  0.22792212  0.24854626  0.04527829    -0.14300
H129        H  0.27402859  0.27122335  0.07450121     0.21100
H130        H  0.19179017  0.24684322  0.13932714     0.17100
H131        H  0.22346162  0.26398376  0.18659396     0.19600
H132        H  0.24377973  0.25117096  0.02793167     0.13000
C133        C  0.37247091  0.36248685  0.22467462     0.16800
C134        C  0.39317091  0.38005810  0.21311787    -0.32200
C135        C  0.40820886  0.39617090  0.23414547     0.21200
C136        C  0.40311076  0.39461360  0.26534272     0.03400
C137        C  0.38246870  0.37686620  0.27689992    -0.21900
C138        C  0.36716393  0.36097639  0.25577616     0.12600
S139        S  0.35147286  0.34209841  0.20279413    -0.05600
C140        C  0.33475050  0.33126874  0.23578374    -0.09000
C141        C  0.34563337  0.34317233  0.26235070    -0.25700
S142        S  0.42322835  0.41637501  0.28697631    -0.02800
C143        C  0.43847687  0.42785181  0.25358572    -0.16300
C144        C  0.42848541  0.41518371  0.22724134    -0.14300
H145        H  0.39708970  0.38142224  0.18875243     0.21100
H146        H  0.37824735  0.37581004  0.30122137     0.17100
H147        H  0.33810861  0.33962600  0.28533404     0.19600
H148        H  0.43539472  0.41991255  0.20424025     0.13000
C149        C  0.08516769  0.09575507  0.01600643     0.16800
C150        C  0.10412051  0.11579722  0.02631453    -0.32200
C151        C  0.11656370  0.13300457  0.00438260     0.21200
C152        C  0.11053392  0.13049354  0.97354460     0.03400
C153        C  0.09165174  0.11028843  0.96312891    -0.21900
C154        C  0.07916105  0.09303708  0.98510915     0.12600
S155        S  0.06772024  0.07308068  0.03911071    -0.05600
C156        C  0.05591886  0.05569940  0.51118001    -0.09000
C157        C  0.06295779  0.06936642  0.48429227    -0.25700
S158        S  0.13480795  0.14662913  0.45397380    -0.02800
C159        C  0.15411312  0.15669785  0.48547733    -0.16300
C160        C  0.13548775  0.15356980  0.01015059    -0.14300
H161        H  0.10891945  0.11794892  0.05042058     0.21100
H162        H  0.08917258  0.10544642  0.44358461     0.17100
H163        H  0.05317860  0.06576457  0.46231556     0.19600
H164        H  0.14312691  0.15789492  0.03292769     0.13000
C165        C  0.09524631  0.90639129  0.02558630     0.16800
C166        C  0.11442119  0.88819965  0.03898501    -0.29000
C167        C  0.13014445  0.87109302  0.01943779     0.21200
C168        C  0.12712887  0.87228558  0.98797884     0.03400
C169        C  0.10808658  0.89064615  0.97449686    -0.21900
C170        C  0.09211117  0.90754787  0.99406446     0.12600
S171        S  0.07362590  0.92799777  0.04551053    -0.05600
C172        C  0.05384191  0.93324016  0.51360580    -0.09000
C173        C  0.07091300  0.92587379  0.48918861    -0.25700
S174        S  0.15148103  0.85346650  0.47312967    -0.02800
C175        C  0.15631472  0.83360065  0.50569594    -0.16300
C176        C  0.14916564  0.85141247  0.02824304    -0.14300
H177        H  0.11666725  0.88711433  0.06360733     0.21100
H178        H  0.11281047  0.89922697  0.45551193     0.17100
H179        H  0.07044119  0.93558390  0.46687794     0.19600
H180        H  0.15416121  0.84751911  0.05193459     0.13000
C181        C  0.36668960  0.61612663  0.27336735     0.16800
C182        C  0.38707562  0.59921092  0.28670902    -0.32200
C183        C  0.40161914  0.58076706  0.26748654     0.21200
C184        C  0.39617359  0.57937449  0.23635261     0.03400
C185        C  0.37567058  0.59619484  0.22308006    -0.21900
C186        C  0.36104336  0.61454884  0.24234592     0.12600
S187        S  0.34673297  0.63962941  0.29275348    -0.05600
C188        C  0.33001848  0.64745006  0.25878907    -0.09000
C189        C  0.34011142  0.63234260  0.23381576    -0.25700
S190        S  0.41641462  0.55611828  0.21679669    -0.02800
C191        C  0.43235841  0.54803088  0.25092430    -0.16300
C192        C  0.42228396  0.56268202  0.27605769    -0.14300
H193        H  0.39139099  0.60037022  0.31100286     0.21100
H194        H  0.37132742  0.59503336  0.19879512     0.17100
H195        H  0.33235966  0.63364183  0.21065541     0.19600
H196        H  0.42990517  0.56049856  0.29922965     0.13000
C197        C  0.21790187  0.75246344  0.11778926     0.16800
C198        C  0.21627147  0.74635202  0.14923567    -0.32200
C199        C  0.23863286  0.73187037  0.16254218     0.21200
C200        C  0.26143552  0.72387491  0.14519693     0.03400
C201        C  0.26297826  0.72982452  0.11382563    -0.21900
C202        C  0.24071499  0.74426660  0.10055711     0.12600
S203        S  0.19345484  0.77034268  0.09736876    -0.05600
C204        C  0.21407645  0.76667404  0.06500155    -0.09000
C205        C  0.23865864  0.75221579  0.07044647    -0.25700
S206        S  0.28646737  0.70681422  0.16531843    -0.02800
C207        C  0.26627133  0.71017461  0.19799688    -0.16300
C208        C  0.24119963  0.72407311  0.19276893    -0.14300
H209        H  0.19845423  0.75275930  0.16275623     0.21100
H210        H  0.28086832  0.72355392  0.10034454     0.17100
H211        H  0.25463896  0.74820319  0.05351080     0.19600
H212        H  0.22541827  0.72809645  0.20991350     0.13000
C213        C  0.22932471  0.75922520  0.39664804     0.16800
C214        C  0.23499762  0.76009081  0.36517176    -0.32200
C215        C  0.24396032  0.73544744  0.35087828     0.21200
C216        C  0.24721932  0.71102805  0.36729888     0.03400
C217        C  0.24156148  0.71015107  0.39889305    -0.21900
C218        C  0.23251505  0.73488131  0.41321392     0.12600
S219        S  0.21774221  0.78685190  0.41763877    -0.05600
C220        C  0.21668346  0.76560957  0.44947863    -0.09000
C221        C  0.22549222  0.73840542  0.44363979    -0.25700
S222        S  0.25909465  0.68365888  0.34586810    -0.02800
C223        C  0.25998311  0.70537125  0.31432174    -0.16300
C224        C  0.25101858  0.73233833  0.32052720    -0.14300
H225        H  0.23250560  0.77919247  0.35236737     0.21100
H226        H  0.24415383  0.69107432  0.41171595     0.17100
H227        H  0.22596618  0.72189032  0.46041831     0.19600
H228        H  0.25075457  0.74912293  0.30405993     0.13000
C229        C  0.87827600  0.13235643  0.49546795     0.16800
C230        C  0.89577102  0.11243759  0.48196204    -0.32200
C231        C  0.90833835  0.09294337  0.50122813     0.21200
C232        C  0.90357886  0.09318972  0.53255435     0.03400
C233        C  0.88575706  0.11294728  0.54600050    -0.21900
C234        C  0.87331716  0.13258902  0.52668613     0.12600
S235        S  0.86185946  0.15811249  0.47608155    -0.05600
C236        C  0.84777571  0.16976806  0.51034528    -0.09000
C237        C  0.83880686  0.13497351  0.03158735    -0.25700
S238        S  0.91791398  0.06224773  0.04690047    -0.02800
C239        C  0.93584767  0.05772355  0.51766889    -0.16300
C240        C  0.92668956  0.07251107  0.49250031    -0.14300
H241        H  0.89971563  0.11238607  0.45754471     0.21100
H242        H  0.87292892  0.10070241  0.06590354     0.17100
H243        H  0.83238546  0.13681266  0.05523099     0.19600
H244        H  0.93356127  0.06892846  0.46918070     0.13000
C245        C  0.59870812  0.40429921  0.23968171     0.16800
C246        C  0.61947711  0.38724075  0.22701879    -0.32200
C247        C  0.63512352  0.37078835  0.24707019     0.21200
C248        C  0.63047204  0.37143766  0.27833880     0.03400
C249        C  0.60991374  0.38877967  0.29110204    -0.21900
C250        C  0.59409077  0.40510143  0.27101996     0.12600
S251        S  0.57691159  0.42498591  0.21905780    -0.05600
C252        C  0.56126515  0.43488989  0.25297356    -0.09000
C253        C  0.57268457  0.42277036  0.27883346    -0.25700
S254        S  0.65131397  0.34942645  0.29852122    -0.02800
C255        C  0.66665319  0.33893580  0.26443067    -0.16300
C256        C  0.65580066  0.35246373  0.23897115    -0.14300
H257        H  0.62303861  0.38654054  0.20253808     0.21100
H258        H  0.60618457  0.38926360  0.31555349     0.17100
H259        H  0.56552726  0.42644526  0.30202824     0.19600
H260        H  0.66252189  0.34942662  0.21556304     0.13000
C261        C  0.75535357  0.25285511  0.16376997     0.16800
C262        C  0.77403645  0.24100480  0.14273849    -0.32200
C263        C  0.76287494  0.22752469  0.11700751     0.21200
C264        C  0.73439665  0.22590300  0.11243980     0.03400
C265        C  0.71571195  0.23759584  0.13357505    -0.21900
C266        C  0.72687032  0.25121031  0.15921923     0.12600
S267        S  0.76474008  0.26963768  0.19664031    -0.05600
C268        C  0.72988074  0.27442393  0.20446362    -0.09000
C269        C  0.71211533  0.26378273  0.18238206    -0.25700
S270        S  0.72503253  0.21010911  0.07897151    -0.02800
C271        C  0.75989771  0.20578867  0.07085411    -0.16300
C272        C  0.77763548  0.21570263  0.09339209    -0.14300
H273        H  0.79627865  0.24238804  0.14618093     0.21100
H274        H  0.69347558  0.23641697  0.13000345     0.17100
H275        H  0.68963909  0.26431426  0.18378178     0.19600
H276        H  0.80010927  0.21555037  0.09185085     0.13000
C277        C  0.75948501  0.25227663  0.35675036     0.16800
C278        C  0.77247613  0.23343719  0.37639820    -0.32200
C279        C  0.77880500  0.24276227  0.40596494     0.21200
C280        C  0.77271886  0.26968491  0.41555687     0.03400
C281        C  0.75992899  0.28864992  0.39577172    -0.21900
C282        C  0.75332475  0.27922587  0.36623326     0.12600
S283        S  0.74960524  0.24468722  0.32030129    -0.05600
C284        C  0.73693049  0.27826136  0.31755867    -0.09000
C285        C  0.74031539  0.29425455  0.34386355    -0.25700
S286        S  0.78091661  0.27638691  0.45283304    -0.02800
C287        C  0.79252725  0.24241744  0.45559279    -0.16300
C288        C  0.79025751  0.22709947  0.42868644    -0.14300
H289        H  0.77707101  0.21229997  0.36910853     0.21100
H290        H  0.75490790  0.30963477  0.40323284     0.17100
H291        H  0.73396982  0.31580990  0.34641089     0.19600
H292        H  0.79554821  0.20525851  0.42611936     0.13000
C293        C  0.87120581  0.86823686  0.47815013     0.16800
C294        C  0.89317035  0.88540537  0.46878542    -0.32200
C295        C  0.90467732  0.90364171  0.49058197     0.21200
C296        C  0.89479786  0.90487090  0.52039024     0.03400
C297        C  0.87258413  0.88794190  0.52963574    -0.21900
C298        C  0.86114910  0.86962897  0.50783080     0.12600
S299        S  0.85520339  0.84377579  0.45565501    -0.05600
C300        C  0.83483325  0.83486324  0.48669350    -0.09000
C301        C  0.85754282  0.83484302  0.01373650    -0.25700
S302        S  0.93265289  0.90995082  0.04121746    -0.02800
C303        C  0.93274142  0.93626296  0.51248790    -0.16300
C304        C  0.92630622  0.92166928  0.48590837    -0.14300
H305        H  0.90118503  0.88435583  0.44562207     0.21100
H306        H  0.89534533  0.86131053  0.05237500     0.17100
H307        H  0.85638439  0.82440247  0.03558205     0.19600
H308        H  0.93702968  0.92403012  0.46425050     0.13000
C309        C  0.62250849  0.61739108  0.22716371     0.16800
C310        C  0.60501920  0.59659150  0.21544407    -0.32200
C311        C  0.58720986  0.58309941  0.23598838     0.21200
C312        C  0.58704685  0.58973586  0.26692279     0.03400
C313        C  0.60465763  0.61050764  0.27864985    -0.21900
C314        C  0.62226673  0.62426363  0.25797751     0.12600
S315        S  0.64486728  0.63672420  0.20580176    -0.05600
C316        C  0.65410719  0.65488842  0.23859644    -0.09000
C317        C  0.64027402  0.64564330  0.26472316    -0.25700
S318        S  0.56387105  0.57086474  0.28802306    -0.02800
C319        C  0.55416582  0.55405651  0.25472271    -0.16300
C320        C  0.56834485  0.56271180  0.22883226    -0.14300
H321        H  0.60506063  0.59137952  0.19128904     0.21100
H322        H  0.60443709  0.61590384  0.30274912     0.17100
H323        H  0.64254112  0.65430260  0.28747336     0.19600
H324        H  0.56515096  0.55440093  0.20600474     0.13000
C325        C  0.73777080  0.75294513  0.33170483     0.16800
C326        C  0.75024166  0.77274992  0.35110856    -0.32200
C327        C  0.75836967  0.76403341  0.38041204     0.21200
C328        C  0.75433047  0.73679280  0.38982620     0.03400
C329        C  0.74194851  0.71699974  0.37041867    -0.21900
C330        C  0.73368288  0.72574170  0.34123253     0.12600
S331        S  0.72667541  0.75922872  0.29528758    -0.05600
C332        C  0.71636330  0.72475473  0.29267835    -0.09000
C333        C  0.72132855  0.70953828  0.31909700    -0.25700
S334        S  0.76494027  0.73044535  0.42633216    -0.02800
C335        C  0.77478584  0.76502421  0.42945960    -0.16300
C336        C  0.77022922  0.78029387  0.40292010    -0.14300
H337        H  0.75336651  0.79403913  0.34372822     0.21100
H338        H  0.73872857  0.69572813  0.37783794     0.17100
H339        H  0.71685358  0.68755903  0.32178071     0.19600
H340        H  0.77453468  0.80231495  0.40041656     0.13000
C341        C  0.76697399  0.75678405  0.09934088     0.16800
C342        C  0.76685104  0.75120809  0.13075399    -0.32200
C343        C  0.74266152  0.73969637  0.14332163     0.21200
C344        C  0.71960555  0.73388815  0.12543504     0.03400
C345        C  0.71975580  0.73938620  0.09391270    -0.21900
C346        C  0.74399751  0.75096426  0.08132462     0.12600
S347        S  0.79423740  0.77095692  0.08001901    -0.05600
C348        C  0.77467087  0.76909298  0.04697460    -0.09000
C349        C  0.74827413  0.75790972  0.05123944    -0.25700
S350        S  0.69244624  0.71971385  0.14517575    -0.02800
C351        C  0.71236231  0.72162149  0.17802149    -0.16300
C352        C  0.73867392  0.73275672  0.17336537    -0.14300
H353        H  0.78483863  0.75570225  0.14481819     0.21100
H354        H  0.70179870  0.73483279  0.07983701     0.17100
H355        H  0.73283664  0.75531239  0.03346053     0.19600
H356        H  0.75442177  0.73512754  0.19085700     0.13000
C357        C  0.69164833  0.66629833  0.73751073     0.04000
C358        C  0.70142962  0.67639894  0.70930345    -0.12100
C359        C  0.72215447  0.69688372  0.70768978     0.01500
C360        C  0.73358877  0.70732352  0.73495884    -0.10600
C361        C  0.72426191  0.69789555  0.76365822     0.04000
C362        C  0.70340438  0.67720764  0.76465320    -0.10100
H363        H  0.69282404  0.66841843  0.68818930     0.09600
H364        H  0.74936156  0.72334876  0.73380525     0.07100
H365        H  0.69599257  0.67017401  0.78659790     0.07000
C366        C  0.81871403  0.80719489  0.98824618     0.04000
C367        C  0.80804852  0.79758196  0.51375644    -0.12100
C368        C  0.78997503  0.77475272  0.51431124     0.01500
C369        C  0.77673731  0.76628901  0.98939895    -0.10600
C370        C  0.78818249  0.77433986  0.96111751     0.04000
C371        C  0.80919341  0.79488750  0.96080377    -0.10100
H372        H  0.81676736  0.80487719  0.53510041     0.09600
H373        H  0.76093897  0.75026590  0.99002240     0.07100
H374        H  0.81873270  0.80067528  0.93931052     0.07000
C375        C  0.68032408  0.30948492  0.76325676     0.04000
C376        C  0.68645234  0.29481894  0.79019272    -0.12100
C377        C  0.70625626  0.27337322  0.79030026     0.01500
C378        C  0.72006489  0.26639593  0.76310668    -0.10600
C379        C  0.71449673  0.28072332  0.73595395     0.04000
C380        C  0.69461845  0.30226596  0.73614093    -0.10100
H381        H  0.67539957  0.29957984  0.81116723     0.09600
H382        H  0.73534770  0.24980954  0.76312694     0.07100
H383        H  0.69096617  0.31376545  0.71532481     0.07000
C384        C  0.80261548  0.16819391  0.00968952     0.04000
C385        C  0.78911148  0.17794415  0.98321311    -0.12100
C386        C  0.76639930  0.19629504  0.98532848     0.01500
C387        C  0.75659512  0.20437683  0.01421931    -0.10600
C388        C  0.79770859  0.22604313  0.54005361     0.04000
C389        C  0.81675707  0.20373965  0.53964735    -0.10100
H390        H  0.79661602  0.17190214  0.96079071     0.09600
H391        H  0.73907437  0.21850702  0.01598425     0.07100
H392        H  0.82151678  0.19343491  0.56090364     0.07000
C393        C  0.30402810  0.66405574  0.75781960     0.04000
C394        C  0.29190012  0.67412832  0.78504380    -0.12100
C395        C  0.27221669  0.69571289  0.78477438     0.01500
C396        C  0.26438149  0.70751432  0.75666878    -0.10600
C397        C  0.27551363  0.69734514  0.72884098     0.04000
C398        C  0.29517731  0.67553461  0.72984698    -0.10100
H399        H  0.29832777  0.66584294  0.80688599     0.09600
H400        H  0.24957389  0.72450349  0.75666537     0.07100
H401        H  0.30335541  0.66735297  0.70861924     0.07000
C402        C  0.18073392  0.81383803  0.00502733     0.04000
C403        C  0.18596857  0.79895783  0.53483689    -0.12100
C404        C  0.20486730  0.77644432  0.53574597     0.01500
C405        C  0.21728405  0.76774639  0.00696754    -0.10600
C406        C  0.21053728  0.77988243  0.97867002     0.04000
C407        C  0.19253402  0.80285685  0.97811070    -0.10100
H408        H  0.17900491  0.80835003  0.55604090     0.09600
H409        H  0.23104079  0.74989247  0.00732388     0.07100
H410        H  0.18729321  0.81180016  0.95621516     0.07000
O411        O  0.96422292  0.02332659  0.98477479    -0.72000
O412        O  0.02686862  0.96683781  0.98428222    -0.73000
O413        O  0.96768910  0.96401891  0.98486996    -0.61600
O414        O  0.02305875  0.02603211  0.98304063    -0.70100
O415        O  0.02588037  0.02437526  0.53821861    -0.69600
O416        O  0.96409207  0.96668958  0.53920392    -0.60900
O417        O  0.02326539  0.96488175  0.53820724    -0.73400
O418        O  0.96674384  0.02575935  0.54066356    -0.72100
Cu419      Cu  0.99542168  0.99499818  0.98245184     1.04600
Cu420      Cu  0.99507311  0.99541095  0.54085408     1.04300
C421        C  0.95485053  0.03194087  0.01059213     0.94200
C422        C  0.03704177  0.95892332  0.00987211     0.93300
C423        C  0.95958078  0.95371546  0.01024275     0.85400
C424        C  0.03203787  0.03656615  0.00800355     0.91700
O425        O  0.52686598  0.46265448  0.72747582    -0.72000
O426        O  0.47084479  0.52385460  0.72761564    -0.73000
O427        O  0.52984556  0.52151748  0.72798048    -0.61600
O428        O  0.46783167  0.46496411  0.72799225    -0.70100
O429        O  0.46873340  0.46427882  0.77876418    -0.69600
O430        O  0.52876592  0.52243525  0.77875647    -0.60900
O431        O  0.46928316  0.52350977  0.77839203    -0.73400
O432        O  0.52787219  0.46324641  0.77827597    -0.72100
Cu433      Cu  0.49886289  0.49325068  0.72603263     1.04600
Cu434      Cu  0.49868291  0.49340360  0.78036353     1.04300
C435        C  0.53648746  0.45346513  0.75264986     0.94200
C436        C  0.46072192  0.53297863  0.75274993     0.93300
C437        C  0.53905259  0.53089206  0.75348340     0.85400
C438        C  0.45856908  0.45566848  0.75344796     0.91700
C439        C  0.16422838  0.19040205  0.98275792     0.04000
C440        C  0.18322623  0.19302290  0.51174028    -0.12100
C441        C  0.20416051  0.21331879  0.51200678     0.01500
C442        C  0.20525846  0.23226759  0.98290378    -0.10600
C443        C  0.19737820  0.21978195  0.95502732     0.04000
C444        C  0.17685950  0.19884004  0.95516068    -0.10100
H445        H  0.17312362  0.18779683  0.53304383     0.09600
H446        H  0.22074024  0.24859581  0.98279746     0.07100
H447        H  0.17139997  0.18863868  0.93385703     0.07000
C448        C  0.30704728  0.31935273  0.73546968     0.04000
C449        C  0.29860073  0.30834246  0.70704163    -0.12100
C450        C  0.27698285  0.28883227  0.70489082     0.01500
C451        C  0.26387207  0.27979575  0.73179946    -0.10600
C452        C  0.27214377  0.28990340  0.76062185     0.04000
C453        C  0.29367581  0.30983644  0.76223702    -0.10100
H454        H  0.30865900  0.31518962  0.68624464     0.09600
H455        H  0.24775982  0.26411052  0.73036137     0.07100
H456        H  0.29942344  0.31839557  0.78426684     0.07000
C457        C  0.22853466  0.25872520  0.82674124     0.16800
C458        C  0.20805554  0.24650566  0.84532338    -0.32200
C459        C  0.21494375  0.24095168  0.87593611     0.21200
C460        C  0.24108534  0.24717574  0.88737541     0.03400
C461        C  0.26154367  0.25922258  0.86877968    -0.21900
C462        C  0.25461177  0.26496725  0.83831119     0.12600
S463        S  0.22447658  0.26708497  0.78906310    -0.05600
C464        C  0.25836320  0.27919194  0.78877417    -0.09000
C465        C  0.27171761  0.27677701  0.81679796    -0.25700
S466        S  0.24517257  0.23990758  0.92523945    -0.02800
C467        C  0.21110623  0.22859707  0.92611594    -0.16300
C468        C  0.19769850  0.23003295  0.89798198    -0.14300
H469        H  0.18760681  0.24174787  0.83638345     0.21100
H470        H  0.28191835  0.26419602  0.87778752     0.17100
H471        H  0.29308034  0.28267067  0.82111308     0.19600
H472        H  0.17618829  0.22440541  0.89410098     0.13000
C473        C  0.26400109  0.26256083  0.62240804     0.16800
C474        C  0.26593815  0.25445710  0.59158216    -0.32200
C475        C  0.24170438  0.24467891  0.57730374     0.21200
C476        C  0.21668978  0.24309166  0.59300450     0.03400
C477        C  0.21475010  0.25121054  0.62378611    -0.21900
C478        C  0.23898211  0.26088286  0.63808005     0.12600
S479        S  0.29090843  0.27503733  0.64385522    -0.05600
C480        C  0.26826229  0.27795703  0.67447619    -0.09000
C481        C  0.24127460  0.26960193  0.66788311    -0.25700
S482        S  0.18987496  0.23004980  0.57193213    -0.02800
C483        C  0.21256921  0.22640554  0.54145680    -0.16300
C484        C  0.23946965  0.23527418  0.54770588    -0.14300
H485        H  0.28549050  0.25560976  0.57931098     0.21100
H486        H  0.19524278  0.24985991  0.63612075     0.17100
H487        H  0.22403677  0.27029305  0.68385032     0.19600
H488        H  0.25674359  0.23407145  0.53181830     0.13000
C489        C  0.36316923  0.37660731  0.72577685     0.16800
C490        C  0.38150265  0.39679252  0.71448062    -0.32200
C491        C  0.40071400  0.40843187  0.73493091     0.21200
C492        C  0.40147596  0.40055249  0.76540458     0.03400
C493        C  0.38311281  0.38026642  0.77669955    -0.21900
C494        C  0.36400204  0.36841833  0.75610786     0.12600
S495        S  0.33875002  0.35985686  0.70440821    -0.05600
C496        C  0.32935030  0.34105875  0.73648871    -0.09000
C497        C  0.34471130  0.34805905  0.76243721    -0.25700
S498        S  0.42627172  0.41740806  0.78649255    -0.02800
C499        C  0.43591671  0.43495876  0.75377637    -0.16300
C500        C  0.42046022  0.42806094  0.72809221    -0.14300
H501        H  0.38092877  0.40302661  0.69070306     0.21100
H502        H  0.38378064  0.37391589  0.80043228     0.17100
H503        H  0.34241374  0.33852268  0.78468223     0.19600
H504        H  0.42342689  0.43702187  0.70562406     0.13000
C505        C  0.09266409  0.08838112  0.51936838     0.16800
C506        C  0.11423656  0.10598821  0.52889373    -0.32200
C507        C  0.12640345  0.12340175  0.50690888     0.21200
C508        C  0.11757919  0.12341134  0.47677428     0.03400
C509        C  0.09613869  0.10560813  0.46713596    -0.21900
C510        C  0.08397770  0.08813549  0.48913520     0.12600
S511        S  0.07502227  0.06585927  0.54260629    -0.05600
C512        C  0.05217820  0.05962623  0.00681015    -0.09000
C513        C  0.06025848  0.07224939  0.97967752    -0.25700
S514        S  0.12797511  0.15363136  0.95089415    -0.02800
C515        C  0.14363977  0.16704725  0.98340911    -0.16300
C516        C  0.14739708  0.14207532  0.51195058    -0.14300
H517        H  0.12115728  0.10621763  0.55246542     0.21100
H518        H  0.08687746  0.10813449  0.93902391     0.17100
H519        H  0.05263125  0.06657868  0.95718368     0.19600
H520        H  0.15733341  0.14463936  0.53397315     0.13000
C521        C  0.08508579  0.89662830  0.52746597     0.16800
C522        C  0.10124197  0.87532051  0.54023122    -0.29000
C523        C  0.12162155  0.86285357  0.52167333     0.21200
C524        C  0.12589426  0.87141834  0.49181940     0.03400
C525        C  0.10962982  0.89267878  0.47893899    -0.21900
C526        C  0.08900471  0.90496746  0.49742007     0.12600
S527        S  0.05961995  0.91441171  0.54648412    -0.05600
C528        C  0.05995488  0.93863672  0.01105770    -0.09000
C529        C  0.07186178  0.92611992  0.98552507    -0.25700
S530        S  0.14761464  0.84933055  0.96843901    -0.02800
C531        C  0.16042175  0.83745371  0.00306114    -0.16300
C532        C  0.13888124  0.84129817  0.52977880    -0.14300
H533        H  0.09798517  0.86867395  0.56361310     0.21100
H534        H  0.10553714  0.89140537  0.94989338     0.17100
H535        H  0.06580024  0.93010218  0.96209402     0.19600
H536        H  0.13811562  0.83126804  0.55187797     0.13000
C537        C  0.36150292  0.60908355  0.77349333     0.16800
C538        C  0.38076196  0.59086418  0.78682032    -0.32200
C539        C  0.40155917  0.57960987  0.76788428     0.21200
C540        C  0.40287163  0.58595694  0.73698178     0.03400
C541        C  0.38368328  0.60425965  0.72372762    -0.21900
C542        C  0.36308907  0.61575533  0.74276346     0.12600
S543        S  0.33524013  0.62548188  0.79265407    -0.05600
C544        C  0.32636172  0.64228617  0.75907379    -0.09000
C545        C  0.34313918  0.63465457  0.73433191    -0.25700
S546        S  0.42900819  0.56948976  0.71763079    -0.02800
C547        C  0.43846772  0.55399805  0.75156093    -0.16300
C548        C  0.42211994  0.56142442  0.77648015    -0.14300
H549        H  0.37966802  0.58580570  0.81092151     0.21100
H550        H  0.38482036  0.60939138  0.69964827     0.17100
H551        H  0.34171545  0.64292386  0.71142987     0.19600
H552        H  0.42466817  0.55338764  0.79942401     0.13000
C553        C  0.21887425  0.75193614  0.61893885     0.16800
C554        C  0.21770308  0.74635606  0.65045104    -0.32200
C555        C  0.24000577  0.73174815  0.66350905     0.21200
C556        C  0.26247431  0.72318241  0.64594422     0.03400
C557        C  0.26366932  0.72880137  0.61443254    -0.21900
C558        C  0.24130592  0.74331639  0.60133572     0.12600
S559        S  0.19396278  0.76933969  0.59888954    -0.05600
C560        C  0.21380263  0.76511768  0.56606328    -0.09000
C561        C  0.23854312  0.75071410  0.57106742    -0.25700
S562        S  0.28718325  0.70544063  0.66595159    -0.02800
C563        C  0.26709901  0.70930528  0.69864983    -0.16300
C564        C  0.24250345  0.72395420  0.69364838    -0.14300
H565        H  0.20011290  0.75304076  0.66417489     0.21100
H566        H  0.28121387  0.72202469  0.60069628     0.17100
H567        H  0.25401817  0.74623761  0.55370409     0.19600
H568        H  0.22683557  0.72822483  0.71085874     0.13000
C569        C  0.23645174  0.76227847  0.89719635     0.16800
C570        C  0.24464187  0.76307632  0.86637631    -0.32200
C571        C  0.24867311  0.73758187  0.85111390     0.21200
C572        C  0.24472219  0.71239386  0.86591900     0.03400
C573        C  0.23625530  0.71159415  0.89671090    -0.21900
C574        C  0.23232591  0.73713604  0.91203296     0.12600
S575        S  0.23029078  0.79095205  0.91941029    -0.05600
C576        C  0.22175281  0.76899965  0.94920159    -0.09000
C577        C  0.22405533  0.74083027  0.94197872    -0.25700
S578        S  0.25204609  0.68381698  0.84382466    -0.02800
C579        C  0.26055087  0.70600805  0.81423284    -0.16300
C580        C  0.25744419  0.73407361  0.82137990    -0.14300
H581        H  0.24788775  0.78273676  0.85484648     0.21100
H582        H  0.23315088  0.69193660  0.90828878     0.17100
H583        H  0.21902839  0.72399387  0.95744038     0.19600
H584        H  0.26240284  0.75102418  0.80603649     0.13000
C585        C  0.86401663  0.11819979  0.99095814     0.16800
C586        C  0.88444126  0.10141524  0.97704869    -0.32200
C587        C  0.90050640  0.08432071  0.99611430     0.21200
C588        C  0.89652553  0.08423018  0.02756880     0.03400
C589        C  0.87616253  0.10095626  0.04136640    -0.21900
C590        C  0.85998804  0.11779835  0.02232432     0.12600
S591        S  0.84193376  0.13997820  0.97210983    -0.05600
C592        C  0.82673809  0.14861157  0.00691217    -0.09000
C593        C  0.85584887  0.15385545  0.53540766    -0.25700
S594        S  0.92172343  0.06848860  0.55209862    -0.02800
C595        C  0.93231788  0.05266729  0.01227202    -0.16300
C596        C  0.92109004  0.06613404  0.98712433    -0.14300
H597        H  0.88751156  0.10150989  0.95248630     0.21100
H598        H  0.88208916  0.11325430  0.57046790     0.17100
H599        H  0.84956718  0.15735334  0.55887702     0.19600
H600        H  0.92761307  0.06281315  0.96364337     0.13000
C601        C  0.59159911  0.39723179  0.73827664     0.16800
C602        C  0.61018725  0.37780250  0.72565560    -0.32200
C603        C  0.62709758  0.36289890  0.74589879     0.21200
C604        C  0.62561556  0.36723715  0.77722972     0.03400
C605        C  0.60699205  0.38658728  0.78987708    -0.21900
C606        C  0.59002170  0.40140687  0.76967997     0.12600
S607        S  0.56944036  0.41745805  0.71763772    -0.05600
C608        C  0.55784191  0.43159669  0.75170621    -0.09000
C609        C  0.57061180  0.42108411  0.77756097    -0.25700
S610        S  0.64769352  0.34706187  0.79787331    -0.02800
C611        C  0.65913001  0.33214855  0.76397267    -0.16300
C612        C  0.64619598  0.34284716  0.73811453    -0.14300
H613        H  0.61138232  0.37442384  0.70115184     0.21100
H614        H  0.60574090  0.38989252  0.81438633     0.17100
H615        H  0.56607305  0.42760105  0.80082120     0.19600
H616        H  0.64992264  0.33606374  0.71481366     0.13000
C617        C  0.76146687  0.25663492  0.66943327     0.16800
C618        C  0.78286903  0.24609337  0.65083174    -0.32200
C619        C  0.77761426  0.24369583  0.61937001     0.21200
C620        C  0.75224233  0.25151533  0.60708517     0.03400
C621        C  0.73089007  0.26201599  0.62565227    -0.21900
C622        C  0.73612927  0.26441783  0.65704043     0.12600
S623        S  0.76343201  0.26069062  0.70813151    -0.05600
C624        C  0.72967589  0.27300575  0.70765569    -0.09000
C625        C  0.71785450  0.27393441  0.67877529    -0.25700
S626        S  0.74988872  0.24732370  0.56852772    -0.02800
C627        C  0.78355584  0.23484854  0.56865024    -0.16300
C628        C  0.79569064  0.23397486  0.59743750    -0.14300
H629        H  0.80266380  0.23996717  0.66045530     0.21100
H630        H  0.71105825  0.26804729  0.61604211     0.17100
H631        H  0.69677826  0.28052147  0.67397895     0.19600
H632        H  0.81669707  0.22706626  0.60203946     0.13000
C633        C  0.72732629  0.22698045  0.85782270     0.16800
C634        C  0.73731710  0.20578807  0.87680780    -0.32200
C635        C  0.74135757  0.21231919  0.90779145     0.21200
C636        C  0.73519846  0.23857811  0.91941956     0.03400
C637        C  0.72502906  0.25966980  0.90051148    -0.21900
C638        C  0.72144862  0.25328621  0.86948684     0.12600
S639        S  0.72259348  0.22383023  0.81931126    -0.05600
C640        C  0.71288219  0.25846958  0.81886177    -0.09000
C641        C  0.71306280  0.27140157  0.84731553    -0.25700
S642        S  0.74213958  0.24265993  0.95733096    -0.02800
C643        C  0.75398817  0.20870135  0.95762244    -0.16300
C644        C  0.75217962  0.19504390  0.92960760    -0.14300
H645        H  0.74233332  0.18533913  0.86770102     0.21100
H646        H  0.72065507  0.28032302  0.90946863     0.17100
H647        H  0.70827851  0.29317167  0.85146081     0.19600
H648        H  0.75862935  0.17373409  0.92533383     0.13000
C649        C  0.87330868  0.86588350  0.97825078     0.16800
C650        C  0.88967540  0.88816088  0.96804669    -0.32200
C651        C  0.90790414  0.90061296  0.98911231     0.21200
C652        C  0.90994629  0.89127958  0.01899606     0.03400
C653        C  0.89391640  0.86866500  0.02904170    -0.21900
C654        C  0.87552176  0.85634446  0.00799569     0.12600
S655        S  0.84896058  0.84880994  0.95672467    -0.05600
C656        C  0.84129602  0.82856446  0.98821037    -0.09000
C657        C  0.84013600  0.85094073  0.51273797    -0.25700
S658        S  0.91212535  0.92801473  0.54346313    -0.02800
C659        C  0.93957247  0.93041548  0.00979396    -0.16300
C660        C  0.92496830  0.92289069  0.98366933    -0.14300
H661        H  0.88795485  0.89576325  0.94483349     0.21100
H662        H  0.86479692  0.88872327  0.55290242     0.17100
H663        H  0.82950302  0.84906238  0.53446623     0.19600
H664        H  0.92652946  0.93339736  0.96185300     0.13000
C665        C  0.63319745  0.61136989  0.72604509     0.16800
C666        C  0.61367588  0.59254158  0.71416966    -0.32200
C667        C  0.59570691  0.57945541  0.73488680     0.21200
C668        C  0.59716132  0.58479966  0.76606495     0.03400
C669        C  0.61658650  0.60383407  0.77789127    -0.21900
C670        C  0.63454044  0.61699779  0.75710811     0.12600
S671        S  0.65679770  0.62918030  0.70471907    -0.05600
C672        C  0.66885078  0.64497178  0.73789994    -0.09000
C673        C  0.65478860  0.63621038  0.76408869    -0.25700
S674        S  0.57379932  0.56638557  0.78741017    -0.02800
C675        C  0.56176260  0.55153059  0.75392088    -0.16300
C676        C  0.57539268  0.56046648  0.72775839    -0.14300
H677        H  0.61257611  0.58824750  0.68983836     0.21100
H678        H  0.61769798  0.60813821  0.80221083     0.17100
H679        H  0.65866585  0.64350927  0.78712764     0.19600
H680        H  0.57078666  0.55334463  0.70475229     0.13000
C681        C  0.75454545  0.74081973  0.83122362     0.16800
C682        C  0.76615518  0.76144262  0.85019149    -0.32200
C683        C  0.76875078  0.75553784  0.88148393     0.21200
C684        C  0.76012219  0.73023205  0.89331682     0.03400
C685        C  0.74854194  0.70958477  0.87433179    -0.21900
C686        C  0.74593863  0.71550310  0.84302790     0.12600
S687        S  0.74950368  0.74404994  0.79279289    -0.05600
C688        C  0.73542321  0.71086895  0.79226813    -0.09000
C689        C  0.73501045  0.69823570  0.82089329    -0.25700
S690        S  0.76472287  0.72725277  0.93186543    -0.02800
C691        C  0.77854759  0.76054678  0.93233409    -0.16300
C692        C  0.77937120  0.77296676  0.90364198    -0.14300
H693        H  0.77281643  0.78125869  0.84095842     0.21100
H694        H  0.74174959  0.68982098  0.88358686     0.17100
H695        H  0.72733717  0.67745413  0.82543230     0.19600
H696        H  0.78684881  0.79384053  0.89918239     0.13000
C697        C  0.77974329  0.74623586  0.59593889     0.16800
C698        C  0.78213624  0.73904819  0.62690305    -0.32200
C699        C  0.75881288  0.72726681  0.64118122     0.21200
C700        C  0.73429187  0.72284227  0.62528175     0.03400
C701        C  0.73192860  0.72996585  0.59435447    -0.21900
C702        C  0.75520704  0.74171258  0.58008998     0.12600
S703        S  0.80528917  0.76143279  0.57471175    -0.05600
C704        C  0.78265780  0.76182957  0.54403698    -0.09000
C705        C  0.75677420  0.75043109  0.55031534    -0.25700
S706        S  0.70841115  0.70832432  0.64648256    -0.02800
C707        C  0.73075751  0.70795262  0.67738016    -0.16300
C708        C  0.75693294  0.71884377  0.67109435    -0.14300
H709        H  0.80127355  0.74261825  0.63934467     0.21100
H710        H  0.71273319  0.72656768  0.58196802     0.17100
H711        H  0.73966255  0.74937571  0.53428535     0.19600
H712        H  0.77388172  0.72014654  0.68730829     0.13000
loop_ 
_geom_bond_atom_site_label_1 
_geom_bond_atom_site_label_2 
_geom_bond_distance 
_geom_bond_site_symmetry_2 
_ccdc_geom_bond_type 
C1            C2   1.409       .  A
C1            C6   1.412       .  A
C1          C316   1.498       .  S
C2            C3   1.403       .  A
C2            H7   1.080       .  S
C3            C4   1.404       .  A
C3          C351   1.487       .  S
C4            C5   1.404       .  A
C4            H8   1.082       .  S
C5            C6   1.410       .  A
C5          C332   1.490       .  S
C6            H9   1.080       .  S
C10          C15   1.412       .  A
C10         C367   1.405       .  A
C10         C300   1.493       .  S
C11          C12   1.402       .  A
C11         C366   1.405   1_554  A
C11          H16   1.080       .  S
C12         C369   1.404   1_554  A
C12         C348   1.487       .  S
C13          C14   1.409       .  A
C13         C368   1.403       .  A
C13          H17   1.082       .  S
C14          C15   1.413       .  A
C14         C335   1.493       .  S
C15          H18   1.082       .  S
C19          C20   1.411       .  A
C19          C24   1.414       .  A
C19         C255   1.497       .  S
C20          C21   1.405       .  A
C20          H25   1.081       .  S
C21          C22   1.399       .  A
C21         C284   1.480       .  S
C22          C23   1.396       .  A
C22          H26   1.083       .  S
C23          C24   1.404       .  A
C23         C268   1.476       .  S
C24          H27   1.080       .  S
C28          C29   1.408       .  A
C28         C389   1.412       .  A
C28         C236   1.495       .  S
C29          C30   1.400       .  A
C29          H34   1.080       .  S
C30          C31   1.397       .  A
C30         C287   1.480       .  S
C31         C388   1.402       .  A
C31          H35   1.082       .  S
C32          C33   1.404       .  A
C32         C387   1.398       .  A
C32         C271   1.478       .  S
C33         C384   1.413       .  A
C33          H36   1.079       .  S
C37          C38   1.401       .  A
C37          C42   1.408       .  A
C37         C188   1.495       .  S
C38          C39   1.400       .  A
C38          H43   1.080       .  S
C39          C40   1.412       .  A
C39         C223   1.490       .  S
C40          C41   1.415       .  A
C40          H44   1.081       .  S
C41          C42   1.413       .  A
C41         C207   1.503       .  S
C42          H45   1.078       .  S
C46          C51   1.402       .  A
C46         C403   1.407       .  A
C46         C175   1.497       .  S
C47          C48   1.410       .  A
C47         C402   1.411       .  A
C47          H52   1.078       .  S
C48         C405   1.414       .  A
C48         C204   1.498       .  S
C49          C50   1.411       .  A
C49         C404   1.415       .  A
C49          H53   1.081       .  S
C50          C51   1.405       .  A
C50         C220   1.494       .  S
C51          H54   1.081       .  S
O55         Cu63   2.027   1_545  S
O55          C65   1.281       .  A
O56         Cu63   2.033   1_455  S
O56          C66   1.281       .  A
O57         Cu63   1.998       .  S
O57          C67   1.276       .  A
O58         Cu63   1.993   1_445  S
O58          C68   1.275       .  A
O59         Cu64   2.022   1_445  S
O59         C424   1.280       .  A
O60         Cu64   2.027       .  S
O60         C423   1.280       .  A
O61         Cu64   1.986   1_455  S
O61         C422   1.274       .  A
O62         Cu64   1.992   1_545  S
O62         C421   1.275       .  A
Cu63       Cu420   2.372       .  S
Cu64       Cu419   2.374   1_554  S
C65         C239   1.471       .  S
C65         O418   1.274       .  A
C66         C172   1.476       .  S
C66         O417   1.276       .  A
C67         C303   1.476       .  S
C67         O416   1.280       .  A
C68         C156   1.475       .  S
C68         O415   1.282       .  A
O69         Cu77   1.998       .  S
O69          C79   1.276       .  A
O70         Cu77   1.999       .  S
O70          C80   1.276       .  A
O71         Cu77   2.014       .  S
O71          C81   1.279       .  A
O72         Cu77   2.014       .  S
O72          C82   1.279       .  A
O73         Cu78   2.005       .  S
O73          C82   1.277       .  A
O74         Cu78   2.004       .  S
O74          C81   1.276       .  A
O75         Cu78   2.025       .  S
O75          C80   1.280       .  A
O76         Cu78   2.028       .  S
O76          C79   1.281       .  A
Cu77        Cu78   2.374       .  S
C79         C252   1.475       .  S
C80         C191   1.473       .  S
C81         C319   1.472       .  S
C82         C143   1.472       .  S
C83          C88   1.410       .  A
C83         C440   1.406       .  A
C83         C159   1.493       .  S
C84          C85   1.403       .  A
C84         C439   1.408   1_554  A
C84          H89   1.077       .  S
C85         C442   1.405   1_554  A
C85         C127   1.493       .  S
C86          C87   1.407       .  A
C86         C441   1.404       .  A
C86          H90   1.082       .  S
C87          C88   1.411       .  A
C87         C111   1.489       .  S
C88          H91   1.082       .  S
C92          C93   1.405       .  A
C92          C97   1.411       .  A
C92         C140   1.496       .  S
C93          C94   1.401       .  A
C93          H98   1.080       .  S
C94          C95   1.405       .  A
C94         C124   1.490       .  S
C95          C96   1.409       .  A
C95          H99   1.081       .  S
C96          C97   1.411       .  A
C96         C108   1.495       .  S
C97         H100   1.078       .  S
C101        C106   1.385       .  A
C101        C102   1.403       .  A
C101        S107   1.705       .  A
C102        C103   1.403       .  A
C102        H113   1.083       .  S
C103        C112   1.374       .  A
C103        C104   1.386       .  A
C104        C105   1.404       .  A
C104        S110   1.707       .  A
C105        C106   1.404       .  A
C105        H114   1.083       .  S
C106        C109   1.374       .  A
S107        C108   1.730       .  A
C108        C109   1.393       .  A
C109        H115   1.082       .  S
S110        C111   1.729       .  A
C111        C112   1.390       .  A
C112        H116   1.083       .  S
C117        C122   1.385       .  A
C117        C118   1.401       .  A
C117        S123   1.702       .  A
C118        C119   1.401       .  A
C118        H129   1.083       .  S
C119        C128   1.371       .  A
C119        C120   1.385       .  A
C120        C121   1.402       .  A
C120        S126   1.703       .  A
C121        C122   1.402       .  A
C121        H130   1.083       .  S
C122        C125   1.372       .  A
S123        C124   1.729       .  A
C124        C125   1.391       .  A
C125        H131   1.082       .  S
S126        C127   1.731       .  A
C127        C128   1.391       .  A
C128        H132   1.082       .  S
C133        C138   1.384       .  A
C133        C134   1.400       .  A
C133        S139   1.698       .  A
C134        C135   1.400       .  A
C134        H145   1.083       .  S
C135        C144   1.370       .  A
C135        C136   1.387       .  A
C136        C137   1.403       .  A
C136        S142   1.707       .  A
C137        C138   1.404       .  A
C137        H146   1.083       .  S
C138        C141   1.374       .  A
S139        C140   1.731       .  A
C140        C141   1.394       .  A
C141        H147   1.081       .  S
S142        C143   1.724       .  A
C143        C144   1.385       .  A
C144        H148   1.083       .  S
C149        C154   1.386   1_554  A
C149        C150   1.398       .  A
C149        S155   1.707       .  A
C150        C151   1.402       .  A
C150        H161   1.083       .  S
C151        C160   1.365       .  A
C151        C152   1.383   1_554  A
C152        C153   1.403       .  A
C152        S514   1.710       .  A
C153        C154   1.405       .  A
C153        H518   1.083       .  S
C154        C513   1.370       .  A
S155        C512   1.721       .  A
C156        C157   1.390       .  A
C156        S511   1.722       .  A
C157        C510   1.370       .  A
C157        H163   1.083       .  S
S158        C159   1.729       .  A
S158        C508   1.711       .  A
C159        C516   1.393       .  A
C160        C515   1.394   1_554  A
C160        H164   1.081       .  S
H162        C509   1.083       .  S
C165        C170   1.387   1_554  A
C165        C166   1.400       .  A
C165        S171   1.702       .  A
C166        C167   1.401       .  A
C166        H177   1.083       .  S
C167        C176   1.371       .  A
C167        C168   1.384   1_554  A
C168        C169   1.403       .  A
C168        S530   1.701       .  A
C169        C170   1.402       .  A
C169        H534   1.083       .  S
C170        C529   1.373       .  A
S171        C528   1.724       .  A
C172        C173   1.389       .  A
C172        S527   1.724       .  A
C173        C526   1.377       .  A
C173        H179   1.083       .  S
S174        C175   1.733       .  A
S174        C524   1.705       .  A
C175        C532   1.392       .  A
C176        C531   1.393       .  A
C176        H180   1.080       .  S
H178        C525   1.083       .  S
C181        C186   1.384       .  A
C181        C182   1.402       .  A
C181        S187   1.701       .  A
C182        C183   1.402       .  A
C182        H193   1.083       .  S
C183        C192   1.372       .  A
C183        C184   1.387       .  A
C184        C185   1.402       .  A
C184        S190   1.704       .  A
C185        C186   1.402       .  A
C185        H194   1.083       .  S
C186        C189   1.373       .  A
S187        C188   1.732       .  A
C188        C189   1.392       .  A
C189        H195   1.081       .  S
S190        C191   1.724       .  A
C191        C192   1.386       .  A
C192        H196   1.083       .  S
C197        C202   1.385       .  A
C197        C198   1.408       .  A
C197        S203   1.710       .  A
C198        C199   1.408       .  A
C198        H209   1.083       .  S
C199        C208   1.380       .  A
C199        C200   1.384       .  A
C200        C201   1.403       .  A
C200        S206   1.704       .  A
C201        C202   1.403       .  A
C201        H210   1.083       .  S
C202        C205   1.375       .  A
S203        C204   1.733       .  A
C204        C205   1.392       .  A
C205        H211   1.082       .  S
S206        C207   1.732       .  A
C207        C208   1.397       .  A
C208        H212   1.082       .  S
C213        C218   1.386       .  A
C213        C214   1.402       .  A
C213        S219   1.700       .  A
C214        C215   1.401       .  A
C214        H225   1.083       .  S
C215        C224   1.375       .  A
C215        C216   1.386       .  A
C216        C217   1.407       .  A
C216        S222   1.705       .  A
C217        C218   1.406       .  A
C217        H226   1.083       .  S
C218        C221   1.380       .  A
S219        C220   1.729       .  A
C220        C221   1.393       .  A
C221        H227   1.082       .  S
S222        C223   1.732       .  A
C223        C224   1.388       .  A
C224        H228   1.083       .  S
C229        C234   1.384       .  A
C229        C230   1.399       .  A
C229        S235   1.697       .  A
C230        C231   1.399       .  A
C230        H241   1.083       .  S
C231        C240   1.370       .  A
C231        C232   1.387       .  A
C232        C233   1.403       .  A
C232        S594   1.705       .  A
C233        C234   1.403       .  A
C233        H598   1.083       .  S
C234        C593   1.372       .  A
S235        C236   1.731       .  A
C236        C593   1.394       .  A
C237        C590   1.368       .  A
C237        C592   1.392       .  A
C237        H243   1.081       .  S
S238        C588   1.701       .  A
S238        C595   1.722       .  A
C239        C240   1.384       .  A
C239        S594   1.725       .  A
C240        H244   1.083       .  S
H242        C589   1.083       .  S
C245        C250   1.387       .  A
C245        C246   1.401       .  A
C245        S251   1.705       .  A
C246        C247   1.402       .  A
C246        H257   1.083       .  S
C247        C256   1.371       .  A
C247        C248   1.384       .  A
C248        C249   1.404       .  A
C248        S254   1.706       .  A
C249        C250   1.404       .  A
C249        H258   1.083       .  S
C250        C253   1.374       .  A
S251        C252   1.724       .  A
C252        C253   1.388       .  A
C253        H259   1.083       .  S
S254        C255   1.732       .  A
C255        C256   1.393       .  A
C256        H260   1.081       .  S
C261        C266   1.387       .  A
C261        C262   1.401       .  A
C261        S267   1.704       .  A
C262        C263   1.402       .  A
C262        H273   1.083       .  S
C263        C272   1.371       .  A
C263        C264   1.387       .  A
C264        C265   1.401       .  A
C264        S270   1.704       .  A
C265        C266   1.402       .  A
C265        H274   1.083       .  S
C266        C269   1.371       .  A
S267        C268   1.725       .  A
C268        C269   1.386       .  A
C269        H275   1.083       .  S
S270        C271   1.725       .  A
C271        C272   1.386       .  A
C272        H276   1.083       .  S
C277        C282   1.386       .  A
C277        C278   1.398       .  A
C277        S283   1.700       .  A
C278        C279   1.399       .  A
C278        H289   1.083       .  S
C279        C288   1.365       .  A
C279        C280   1.386       .  A
C280        C281   1.401       .  A
C280        S286   1.705       .  A
C281        C282   1.402       .  A
C281        H290   1.083       .  S
C282        C285   1.370       .  A
S283        C284   1.726       .  A
C284        C285   1.388       .  A
C285        H291   1.083       .  S
S286        C287   1.726       .  A
C287        C288   1.387       .  A
C288        H292   1.083       .  S
C293        C298   1.384       .  A
C293        C294   1.402       .  A
C293        S299   1.710       .  A
C294        C295   1.404       .  A
C294        H305   1.083       .  S
C295        C304   1.369       .  A
C295        C296   1.386       .  A
C296        C297   1.402       .  A
C296        S658   1.713       .  A
C297        C298   1.405       .  A
C297        H662   1.083       .  S
C298        C657   1.369       .  A
S299        C300   1.727       .  A
C300        C657   1.395       .  A
C301        C654   1.370       .  A
C301        C656   1.395   1_554  A
C301        H307   1.082       .  S
S302        C652   1.713       .  A
S302        C659   1.724       .  A
C303        C304   1.388       .  A
C303        S658   1.724       .  A
C304        H308   1.083       .  S
H306        C653   1.083       .  S
C309        C314   1.384       .  A
C309        C310   1.401       .  A
C309        S315   1.701       .  A
C310        C311   1.401       .  A
C310        H321   1.083       .  S
C311        C320   1.370       .  A
C311        C312   1.387       .  A
C312        C313   1.403       .  A
C312        S318   1.708       .  A
C313        C314   1.404       .  A
C313        H322   1.083       .  S
C314        C317   1.374       .  A
S315        C316   1.732       .  A
C316        C317   1.395       .  A
C317        H323   1.081       .  S
S318        C319   1.725       .  A
C319        C320   1.385       .  A
C320        H324   1.083       .  S
C325        C330   1.386       .  A
C325        C326   1.405       .  A
C325        S331   1.708       .  A
C326        C327   1.405       .  A
C326        H337   1.083       .  S
C327        C336   1.376       .  A
C327        C328   1.385       .  A
C328        C329   1.403       .  A
C328        S334   1.705       .  A
C329        C330   1.403       .  A
C329        H338   1.083       .  S
C330        C333   1.374       .  A
S331        C332   1.730       .  A
C332        C333   1.390       .  A
C333        H339   1.083       .  S
S334        C335   1.730       .  A
C335        C336   1.392       .  A
C336        H340   1.082       .  S
C341        C346   1.386       .  A
C341        C342   1.400       .  A
C341        S347   1.702       .  A
C342        C343   1.400       .  A
C342        H353   1.083       .  S
C343        C352   1.369       .  A
C343        C344   1.386       .  A
C344        C345   1.404       .  A
C344        S350   1.707       .  A
C345        C346   1.404       .  A
C345        H354   1.083       .  S
C346        C349   1.373       .  A
S347        C348   1.727       .  A
C348        C349   1.391       .  A
C349        H355   1.082       .  S
S350        C351   1.729       .  A
C351        C352   1.389       .  A
C352        H356   1.083       .  S
C357        C358   1.407       .  A
C357        C362   1.413       .  A
C357        C672   1.500       .  S
C358        C359   1.402       .  A
C358        H363   1.080       .  S
C359        C360   1.403       .  A
C359        C707   1.487       .  S
C360        C361   1.408       .  A
C360        H364   1.082       .  S
C361        C362   1.412       .  A
C361        C688   1.494       .  S
C362        H365   1.078       .  S
C366        C371   1.411       .  A
C366        C656   1.494       .  S
C367        C368   1.399       .  A
C367        H372   1.080       .  S
C368        C704   1.484       .  S
C369        C370   1.408       .  A
C369        H373   1.081       .  S
C370        C371   1.412       .  A
C370        C691   1.492       .  S
C371        H374   1.082       .  S
C375        C376   1.406       .  A
C375        C380   1.410       .  A
C375        C611   1.489       .  S
C376        C377   1.401       .  A
C376        H381   1.081       .  S
C377        C378   1.399       .  A
C377        C640   1.477       .  S
C378        C379   1.400       .  A
C378        H382   1.082       .  S
C379        C380   1.407       .  A
C379        C624   1.479       .  S
C380        H383   1.081       .  S
C384        C385   1.410   1_554  A
C384        C592   1.496       .  S
C385        C386   1.405       .  A
C385        H390   1.081       .  S
C386        C387   1.399   1_556  A
C386        C643   1.479       .  S
C387        H391   1.083       .  S
C388        C389   1.408       .  A
C388        C627   1.481       .  S
C389        H392   1.079       .  S
C393        C394   1.406       .  A
C393        C398   1.410       .  A
C393        C544   1.498       .  S
C394        C395   1.402       .  A
C394        H399   1.081       .  S
C395        C396   1.407       .  A
C395        C579   1.485       .  S
C396        C397   1.411       .  A
C396        H400   1.082       .  S
C397        C398   1.410       .  A
C397        C563   1.498       .  S
C398        H401   1.078       .  S
C402        C407   1.404   1_554  A
C402        C531   1.498       .  S
C403        C404   1.411       .  A
C403        H408   1.080       .  S
C404        C560   1.498       .  S
C405        C406   1.408   1_554  A
C405        H409   1.082       .  S
C406        C407   1.401       .  A
C406        C576   1.486       .  S
C407        H410   1.081       .  S
O411       Cu419   2.025   1_545  S
O411        C421   1.280   1_556  A
O412       Cu419   2.029   1_455  S
O412        C422   1.281   1_556  A
O413       Cu419   2.000       .  S
O413        C423   1.277   1_556  A
O414       Cu419   1.996   1_445  S
O414        C424   1.276   1_556  A
O415       Cu420   2.035   1_445  S
O416       Cu420   2.031       .  S
O417       Cu420   1.997   1_455  S
O418       Cu420   1.993   1_545  S
C421        C595   1.471       .  S
C422        C528   1.470       .  S
C423        C659   1.475       .  S
C424        C512   1.472       .  S
O425       Cu433   1.992       .  S
O425        C435   1.275       .  A
O426       Cu433   1.992       .  S
O426        C436   1.275       .  A
O427       Cu433   2.017       .  S
O427        C437   1.279       .  A
O428       Cu433   2.020       .  S
O428        C438   1.280       .  A
O429       Cu434   2.008       .  S
O429        C438   1.277       .  A
O430       Cu434   2.010       .  S
O430        C437   1.277       .  A
O431       Cu434   2.022       .  S
O431        C436   1.280       .  A
O432       Cu434   2.016       .  S
O432        C435   1.279       .  A
Cu433      Cu434   2.374       .  S
C435        C608   1.467       .  S
C436        C547   1.471       .  S
C437        C675   1.475       .  S
C438        C499   1.475       .  S
C439        C444   1.410       .  A
C439        C515   1.496       .  S
C440        C441   1.401       .  A
C440        H445   1.080       .  S
C441        C483   1.485       .  S
C442        C443   1.407       .  A
C442        H446   1.081       .  S
C443        C444   1.409       .  A
C443        C467   1.488       .  S
C444        H447   1.082       .  S
C448        C449   1.408       .  A
C448        C453   1.412       .  A
C448        C496   1.496       .  S
C449        C450   1.402       .  A
C449        H454   1.081       .  S
C450        C451   1.404       .  A
C450        C480   1.486       .  S
C451        C452   1.405       .  A
C451        H455   1.082       .  S
C452        C453   1.411       .  A
C452        C464   1.490       .  S
C453        H456   1.081       .  S
C457        C462   1.386       .  A
C457        C458   1.405       .  A
C457        S463   1.708       .  A
C458        C459   1.405       .  A
C458        H469   1.083       .  S
C459        C468   1.376       .  A
C459        C460   1.386       .  A
C460        C461   1.402       .  A
C460        S466   1.704       .  A
C461        C462   1.402       .  A
C461        H470   1.083       .  S
C462        C465   1.373       .  A
S463        C464   1.731       .  A
C464        C465   1.389       .  A
C465        H471   1.082       .  S
S466        C467   1.727       .  A
C467        C468   1.391       .  A
C468        H472   1.083       .  S
C473        C478   1.386       .  A
C473        C474   1.402       .  A
C473        S479   1.706       .  A
C474        C475   1.403       .  A
C474        H485   1.083       .  S
C475        C484   1.371       .  A
C475        C476   1.386       .  A
C476        C477   1.401       .  A
C476        S482   1.703       .  A
C477        C478   1.401       .  A
C477        H486   1.083       .  S
C478        C481   1.370       .  A
S479        C480   1.728       .  A
C480        C481   1.389       .  A
C481        H487   1.083       .  S
S482        C483   1.728       .  A
C483        C484   1.389       .  A
C484        H488   1.083       .  S
C489        C494   1.385       .  A
C489        C490   1.401       .  A
C489        S495   1.701       .  A
C490        C491   1.401       .  A
C490        H501   1.083       .  S
C491        C500   1.371       .  A
C491        C492   1.387       .  A
C492        C493   1.405       .  A
C492        S498   1.709       .  A
C493        C494   1.406       .  A
C493        H502   1.083       .  S
C494        C497   1.376       .  A
S495        C496   1.730       .  A
C496        C497   1.394       .  A
C497        H503   1.082       .  S
S498        C499   1.726       .  A
C499        C500   1.386       .  A
C500        H504   1.083       .  S
C505        C510   1.386       .  A
C505        C506   1.401       .  A
C505        S511   1.711       .  A
C506        C507   1.403       .  A
C506        H517   1.083       .  S
C507        C516   1.368       .  A
C507        C508   1.384       .  A
C508        C509   1.403       .  A
C509        C510   1.405       .  A
C512        C513   1.389   1_554  A
C513        H519   1.083       .  S
S514        C515   1.730       .  A
C516        H520   1.082       .  S
C521        C526   1.387       .  A
C521        C522   1.402       .  A
C521        S527   1.704       .  A
C522        C523   1.402       .  A
C522        H533   1.083       .  S
C523        C532   1.374       .  A
C523        C524   1.385       .  A
C524        C525   1.405       .  A
C525        C526   1.405       .  A
C528        C529   1.386   1_554  A
C529        H535   1.083       .  S
S530        C531   1.733   1_556  A
C532        H536   1.082       .  S
C537        C542   1.384       .  A
C537        C538   1.402       .  A
C537        S543   1.703       .  A
C538        C539   1.402       .  A
C538        H549   1.083       .  S
C539        C548   1.372       .  A
C539        C540   1.387       .  A
C540        C541   1.401       .  A
C540        S546   1.704       .  A
C541        C542   1.402       .  A
C541        H550   1.083       .  S
C542        C545   1.372       .  A
S543        C544   1.732       .  A
C544        C545   1.394       .  A
C545        H551   1.081       .  S
S546        C547   1.724       .  A
C547        C548   1.386       .  A
C548        H552   1.083       .  S
C553        C558   1.385       .  A
C553        C554   1.405       .  A
C553        S559   1.706       .  A
C554        C555   1.404       .  A
C554        H565   1.083       .  S
C555        C564   1.376       .  A
C555        C556   1.385       .  A
C556        C557   1.405       .  A
C556        S562   1.706       .  A
C557        C558   1.405       .  A
C557        H566   1.083       .  S
C558        C561   1.378       .  A
S559        C560   1.732       .  A
C560        C561   1.394       .  A
C561        H567   1.082       .  S
S562        C563   1.732       .  A
C563        C564   1.393       .  A
C564        H568   1.082       .  S
C569        C574   1.386       .  A
C569        C570   1.403       .  A
C569        S575   1.704       .  A
C570        C571   1.402       .  A
C570        H581   1.083       .  S
C571        C580   1.374       .  A
C571        C572   1.386       .  A
C572        C573   1.405       .  A
C572        S578   1.708       .  A
C573        C574   1.405       .  A
C573        H582   1.083       .  S
C574        C577   1.377       .  A
S575        C576   1.728       .  A
C576        C577   1.390       .  A
C577        H583   1.083       .  S
S578        C579   1.728       .  A
C579        C580   1.388       .  A
C580        H584   1.083       .  S
C585        C590   1.384   1_556  A
C585        C586   1.404       .  A
C585        S591   1.705       .  A
C586        C587   1.404       .  A
C586        H597   1.083       .  S
C587        C596   1.374       .  A
C587        C588   1.387   1_556  A
C588        C589   1.399       .  A
C589        C590   1.400       .  A
S591        C592   1.733   1_556  A
C593        H599   1.080       .  S
C595        C596   1.388   1_554  A
C596        H600   1.083       .  S
C601        C606   1.387       .  A
C601        C602   1.401       .  A
C601        S607   1.703       .  A
C602        C603   1.401       .  A
C602        H613   1.083       .  S
C603        C612   1.370       .  A
C603        C604   1.385       .  A
C604        C605   1.400       .  A
C604        S610   1.700       .  A
C605        C606   1.400       .  A
C605        H614   1.083       .  S
C606        C609   1.369       .  A
S607        C608   1.723       .  A
C608        C609   1.384       .  A
C609        H615   1.083       .  S
S610        C611   1.729       .  A
C611        C612   1.391       .  A
C612        H616   1.081       .  S
C617        C622   1.386       .  A
C617        C618   1.402       .  A
C617        S623   1.704       .  A
C618        C619   1.402       .  A
C618        H629   1.083       .  S
C619        C628   1.372       .  A
C619        C620   1.386       .  A
C620        C621   1.399       .  A
C620        S626   1.699       .  A
C621        C622   1.399       .  A
C621        H630   1.083       .  S
C622        C625   1.369       .  A
S623        C624   1.727       .  A
C624        C625   1.386       .  A
C625        H631   1.083       .  S
S626        C627   1.726       .  A
C627        C628   1.388       .  A
C628        H632   1.083       .  S
C633        C638   1.386       .  A
C633        C634   1.401       .  A
C633        S639   1.704       .  A
C634        C635   1.402       .  A
C634        H645   1.083       .  S
C635        C644   1.370       .  A
C635        C636   1.387       .  A
C636        C637   1.398       .  A
C636        S642   1.701       .  A
C637        C638   1.399       .  A
C637        H646   1.083       .  S
C638        C641   1.366       .  A
S639        C640   1.725       .  A
C640        C641   1.386       .  A
C641        H647   1.083       .  S
S642        C643   1.725       .  A
C643        C644   1.388       .  A
C644        H648   1.083       .  S
C649        C654   1.384   1_556  A
C649        C650   1.402       .  A
C649        S655   1.710       .  A
C650        C651   1.404       .  A
C650        H661   1.083       .  S
C651        C660   1.369       .  A
C651        C652   1.386   1_556  A
C652        C653   1.403       .  A
C653        C654   1.405       .  A
S655        C656   1.727       .  A
C657        H663   1.081       .  S
C659        C660   1.388   1_554  A
C660        H664   1.083       .  S
C665        C670   1.384       .  A
C665        C666   1.401       .  A
C665        S671   1.701       .  A
C666        C667   1.401       .  A
C666        H677   1.083       .  S
C667        C676   1.371       .  A
C667        C668   1.387       .  A
C668        C669   1.404       .  A
C668        S674   1.708       .  A
C669        C670   1.404       .  A
C669        H678   1.083       .  S
C670        C673   1.375       .  A
S671        C672   1.733       .  A
C672        C673   1.395       .  A
C673        H679   1.080       .  S
S674        C675   1.725       .  A
C675        C676   1.387       .  A
C676        H680   1.083       .  S
C681        C686   1.385       .  A
C681        C682   1.404       .  A
C681        S687   1.705       .  A
C682        C683   1.404       .  A
C682        H693   1.083       .  S
C683        C692   1.375       .  A
C683        C684   1.385       .  A
C684        C685   1.404       .  A
C684        S690   1.706       .  A
C685        C686   1.404       .  A
C685        H694   1.083       .  S
C686        C689   1.375       .  A
S687        C688   1.730       .  A
C688        C689   1.393       .  A
C689        H695   1.082       .  S
S690        C691   1.730       .  A
C691        C692   1.391       .  A
C692        H696   1.082       .  S
C697        C702   1.386       .  A
C697        C698   1.403       .  A
C697        S703   1.704       .  A
C698        C699   1.403       .  A
C698        H709   1.083       .  S
C699        C708   1.373       .  A
C699        C700   1.386       .  A
C700        C701   1.400       .  A
C700        S706   1.702       .  A
C701        C702   1.400       .  A
C701        H710   1.083       .  S
C702        C705   1.371       .  A
S703        C704   1.728       .  A
C704        C705   1.387       .  A
C705        H711   1.083       .  S
S706        C707   1.727       .  A
C707        C708   1.391       .  A
C708        H712   1.083       .  S
