geometry optimzed in LAMMPS
_audit_creation_date              2020-11-30 
_audit_creation_method            'lammps2cif' 
_symmetry_space_group_name_H-M    'P1' 
_symmetry_Int_Tables_number       1 
_symmetry_cell_setting            triclinic 
loop_ 
_symmetry_equiv_pos_as_xyz 
  x,y,z 
_cell_length_a                    47.439081580335525 
_cell_length_b                    49.725118569237424 
_cell_length_c                    25.23471200868243 
_cell_angle_alpha                 90.78665661003387 
_cell_angle_beta                  91.05675539836743 
_cell_angle_gamma                 119.11921204665063 
loop_ 
_atom_site_label 
_atom_site_type_symbol 
_atom_site_fract_x 
_atom_site_fract_y 
_atom_site_fract_z 
_atom_site_charge 
O1          O  0.00621994  0.06232345  0.03612174    -0.80910
O2          O  0.45002036  0.42089554  0.93193954    -0.80930
O3          O  0.45596555  0.00153519  0.89184491    -0.80940
O4          O  0.99624344  0.47126253  0.09378064    -0.80880
O5          O  0.43949217  0.46939066  0.95480564    -0.81000
O6          O  0.98729932  0.01029726  0.09857963    -0.80920
O7          O  0.45014857  0.43564590  0.01475569    -0.80910
O8          O  0.47486696  0.04582017  0.96487344    -0.80950
C9          C  0.98762697  0.06503325  0.00218820     1.08780
C10         C  0.43643134  0.41576119  0.97591137     1.08670
C11         C  0.43390223  0.98542147  0.92287694     1.08800
C12         C  0.98609515  0.48685630  0.11942251     1.08680
O13         O  0.05128322  0.01600357  0.08201872    -0.80910
O14         O  0.48449562  0.47038447  0.87353042    -0.80990
O15         O  0.04067249  0.07023178  0.94294540    -0.80920
O16         O  0.00359533  0.43221089  0.03263233    -0.80900
O17         O  0.51212097  0.44588970  0.94995405    -0.80950
O18         O  0.05921150  0.05372183  0.00665495    -0.80920
O19         O  0.04775014  0.48980207  0.01221135    -0.80880
O20         O  0.52348883  0.01795966  0.87838610    -0.80950
Co21       Co  0.02335939  0.03306151  0.05149469     1.51530
Co22       Co  0.47778519  0.46192439  0.95160886     1.51690
Co23       Co  0.49943133  0.03152452  0.92367779     1.51570
Co24       Co  0.99971270  0.46651492  0.01495868     1.51470
O25         O  0.00088219  0.00455498  0.98626944    -1.42840
C26         C  0.06483217  0.50667799  0.04977857     1.08710
C27         C  0.50669698  0.99363935  0.85129461     1.08800
C28         C  0.06196285  0.07468679  0.97779644     1.08740
C29         C  0.51302663  0.42886090  0.98813878     1.08710
O30         O  0.00182554  0.00291997  0.36691930    -0.80910
O31         O  0.46336232  0.03312807  0.55679420    -0.80930
O32         O  0.42868225  0.46372675  0.43866943    -0.80940
O33         O  0.06796394  0.05224378  0.50759831    -0.80880
O34         O  0.45967779  0.01319128  0.45291918    -0.81000
O35         O  0.04860385  0.04857871  0.42755181    -0.80920
O36         O  0.01188586  0.05321027  0.52363620    -0.80910
O37         O  0.46784575  0.45368998  0.37290385    -0.80950
C38         C  0.98051766  0.97807468  0.34605673     1.08780
C39         C  0.98768422  0.05626894  0.53882195     1.08670
C40         C  0.43354988  0.49110078  0.43522205     1.08800
C41         C  0.07042937  0.06354008  0.46227951     1.08680
O42         O  0.06766407  0.00468543  0.46721174    -0.80910
O43         O  0.43153224  0.46849550  0.53939389    -0.80990
O44         O  0.48962144  0.43383115  0.46433255    -0.80920
O45         O  0.04049033  0.03698047  0.60499526    -0.80900
O46         O  0.49066988  0.49868086  0.59526671    -0.80950
O47         O  0.02353204  0.45919746  0.40191369    -0.80920
O48         O  0.04663361  0.99335522  0.54675576    -0.80880
O49         O  0.45268759  0.44012579  0.52698101    -0.80950
Co50       Co  0.03317592  0.00350928  0.41866873     1.51530
Co51       Co  0.47572986  0.50632428  0.52132538     1.51690
Co52       Co  0.46177769  0.45000119  0.45235599     1.51570
Co53       Co  0.02613378  0.01971712  0.53569604     1.51470
O54         O  0.99964563  0.99153747  0.47519415    -1.42840
C55         C  0.06812735  0.99605999  0.51434851     1.08710
C56         C  0.42938975  0.44215985  0.54403988     1.08800
C57         C  0.01036041  0.43636961  0.43269505     1.08740
C58         C  0.51571223  0.51554788  0.62560785     1.08710
O59         O  0.43418381  0.19102074  0.00662729    -0.80910
O60         O  0.04947126  0.32234962  0.05766770    -0.80930
O61         O  0.00665939  0.21897786  0.12581901    -0.80940
O62         O  0.45095319  0.27667817  0.98950558    -0.80880
O63         O  0.01872591  0.26757459  0.12049091    -0.81000
O64         O  0.42902004  0.23247307  0.94562212    -0.80920
O65         O  0.00011059  0.30459111  0.04726358    -0.80910
O66         O  0.45341531  0.21771342  0.08146459    -0.80950
C67         C  0.43096115  0.19476790  0.05551111     1.08780
C68         C  0.02631317  0.32787474  0.05530107     1.08670
C69         C  0.01206911  0.24367463  0.14873321     1.08800
C70         C  0.42679230  0.25240858  0.97524172     1.08680
O71         O  0.48690196  0.23976977  0.88859195    -0.80910
O72         O  0.07830870  0.28409784  0.07639702    -0.80990
O73         O  0.98527753  0.18982472  0.03663955    -0.80920
O74         O  0.04230767  0.31942866  0.95463196    -0.80900
O75         O  0.06096796  0.28877478  0.97620206    -0.80950
O76         O  0.48989439  0.19684864  0.95170783    -0.80920
O77         O  0.48532418  0.28323749  0.89468597    -0.80880
O78         O  0.04513990  0.23901311  0.03848000    -0.80950
Co79       Co  0.46283824  0.21801731  0.95064909     1.51530
Co80       Co  0.03798164  0.27679628  0.04408647     1.51690
Co81       Co  0.99948132  0.23214338  0.05993186     1.51570
Co82       Co  0.49460093  0.29369930  0.97276049     1.51470
O83         O  0.99517776  0.25489020  0.99817021    -1.42840
C84         C  0.48675321  0.26237858  0.86710343     1.08710
C85         C  0.07416631  0.25947438  0.05308800     1.08800
C86         C  0.48999132  0.18189900  0.99202092     1.08740
C87         C  0.06576896  0.31386988  0.95752569     1.08710
O88         O  0.43692059  0.20188115  0.52034307    -0.80910
O89         O  0.02265380  0.32595932  0.52680609    -0.80930
O90         O  0.01426580  0.24691431  0.62619235    -0.80940
O91         O  0.45323335  0.24905215  0.41583395    -0.80880
O92         O  0.00871357  0.28751335  0.61082101    -0.81000
O93         O  0.43458071  0.21396090  0.47646230    -0.80920
O94         O  0.98027510  0.30014944  0.47522035    -0.80910
O95         O  0.46631892  0.19655588  0.58153558    -0.80950
C96         C  0.43851377  0.18984017  0.56360614     1.08780
C97         C  0.99988227  0.32484320  0.49872467     1.08670
C98         C  0.00698825  0.26716893  0.64173933     1.08800
C99         C  0.42973152  0.22988302  0.44177317     1.08680
O100        O  0.47570693  0.21365204  0.40103995    -0.80910
O101        O  0.06671149  0.28492358  0.59196409    -0.80990
O102        O  0.00878163  0.19479163  0.49891849    -0.80920
O103        O  0.04143524  0.31596798  0.43436109    -0.80900
O104        O  0.07132921  0.31158518  0.49594424    -0.80950
O105        O  0.45908794  0.16959116  0.47073857    -0.80920
O106        O  0.51882441  0.25731272  0.40110267    -0.80880
O107        O  0.05635736  0.24846248  0.53649526    -0.80950
Co108      Co  0.47743688  0.21378870  0.48179975     1.51530
Co109      Co  0.03826424  0.29788418  0.55209157     1.51690
Co110      Co  0.01105699  0.22547011  0.55579712     1.51570
Co111      Co  0.49904479  0.27776340  0.43931077     1.51470
O112        O  0.00258839  0.25756548  0.50981688    -1.42840
C113        C  0.49904379  0.23380574  0.37564868     1.08710
C114        C  0.07493277  0.26686239  0.57132282     1.08800
C115        C  0.48382296  0.16873930  0.48795292     1.08740
C116        C  0.06881605  0.32492654  0.45536074     1.08710
O117        O  0.22190189  0.04618953  0.04057548    -0.80910
O118        O  0.24453766  0.44102444  0.97960148    -0.80930
O119        O  0.17996535  0.44922012  0.96802447    -0.80940
O120        O  0.27132449  0.99811677  0.11851763    -0.80880
O121        O  0.21633552  0.43515438  0.95353366    -0.81000
O122        O  0.25052867  0.02854690  0.11042262    -0.80920
O123        O  0.28094475  0.46430365  0.04535073    -0.80910
O124        O  0.18843421  0.49717365  0.02869888    -0.80950
C125        C  0.19346984  0.02343860  0.04327175     1.08780
C126        C  0.26184607  0.44038831  0.01887654     1.08670
C127        C  0.18669229  0.42817471  0.95935677     1.08800
C128        C  0.25732626  0.01161186  0.13821341     1.08680
O129        O  0.28847395  0.08224173  0.06520572    -0.80910
O130        O  0.24790285  0.46485912  0.87271320    -0.80990
O131        O  0.22332732  0.03768156  0.94368867    -0.80920
O132        O  0.31903314  0.01938408  0.98532218    -0.80900
O133        O  0.29277848  0.47751208  0.93892946    -0.80950
O134        O  0.27400788  0.05879906  0.96503684    -0.80920
O135        O  0.31350926  0.05476572  0.06451322    -0.80880
O136        O  0.22028645  0.48956515  0.88472100    -0.80950
Co137      Co  0.26245290  0.04158279  0.03656008     1.51530
Co138      Co  0.25172125  0.47974112  0.94274096     1.51690
Co139      Co  0.20710015  0.49377115  0.96145686     1.51570
Co140      Co  0.29166025  0.00792015  0.04912048     1.51470
O141        O  0.24735439  0.99858840  0.00922901    -1.42840
C142        C  0.31438241  0.08085463  0.07146587     1.08710
C143        C  0.23339602  0.47821682  0.85353927     1.08800
C144        C  0.25122594  0.06069568  0.94245327     1.08740
C145        C  0.31940705  0.49858620  0.95690371     1.08710
O146        O  0.21126161  0.02662435  0.56219267    -0.80910
O147        O  0.25382836  0.45066053  0.52228486    -0.80930
O148        O  0.17876167  0.46827827  0.42065353    -0.80940
O149        O  0.25820979  0.98707365  0.59783535    -0.80880
O150        O  0.20360767  0.44711661  0.46271285    -0.81000
O151        O  0.26349695  0.03181431  0.61847977    -0.80920
O152        O  0.30309494  0.47327138  0.55151981    -0.80910
O153        O  0.19596306  0.48128918  0.52840773    -0.80950
C154        C  0.18910928  0.99902521  0.55420670     1.08780
C155        C  0.27858407  0.44835837  0.53476621     1.08670
C156        C  0.17982200  0.44397812  0.43356164     1.08800
C157        C  0.25578014  0.00462174  0.63130176     1.08680
O158        O  0.30605164  0.07230628  0.53909620    -0.80910
O159        O  0.24859320  0.48137965  0.38155407    -0.80990
O160        O  0.20589329  0.03402313  0.46490682    -0.80920
O161        O  0.32212467  0.02604447  0.48815866    -0.80900
O162        O  0.29838191  0.48440948  0.44014630    -0.80950
O163        O  0.25621502  0.06577276  0.48199036    -0.80920
O164        O  0.32104072  0.04471571  0.58581872    -0.80880
O165        O  0.23647533  0.51762659  0.39321894    -0.80950
Co166      Co  0.25939670  0.04684135  0.54702012     1.51530
Co167      Co  0.25192263  0.47078982  0.45584173     1.51690
Co168      Co  0.21719778  0.49867661  0.46056260     1.51570
Co169      Co  0.28954137  0.00574210  0.54126010     1.51470
O170        O  0.25974263  0.01370145  0.49649155    -1.42840
C171        C  0.32642763  0.07130976  0.57038289     1.08710
C172        C  0.24374406  0.50201855  0.36284467     1.08800
C173        C  0.22862578  0.06175584  0.47197731     1.08740
C174        C  0.32398787  0.50808218  0.45557725     1.08710
O175        O  0.18812082  0.20045121  0.02549327    -0.80910
O176        O  0.27339854  0.31605361  0.05548127    -0.80930
O177        O  0.23570401  0.22266156  0.11864304    -0.80940
O178        O  0.21498883  0.26690329  0.01053331    -0.80880
O179        O  0.27116838  0.27089987  0.11115724    -0.81000
O180        O  0.18617152  0.23452239  0.94957740    -0.80920
O181        O  0.26204664  0.31811372  0.97051291    -0.80910
O182        O  0.20373445  0.16994288  0.05256776    -0.80950
C183        C  0.18103805  0.17471871  0.04034504     1.08780
C184        C  0.26946640  0.33058166  0.01713860     1.08670
C185        C  0.25358305  0.24898301  0.13979208     1.08800
C186        C  0.18799741  0.25187441  0.98784940     1.08680
O187        O  0.22562855  0.21744278  0.88712865    -0.80910
O188        O  0.30718640  0.27574106  0.04273462    -0.80990
O189        O  0.26122820  0.18498483  0.00331856    -0.80920
O190        O  0.29592038  0.29095501  0.93212232    -0.80900
O191        O  0.30959812  0.29836044  0.01392445    -0.80950
O192        O  0.21786993  0.17257465  0.95232241    -0.80920
O193        O  0.23618216  0.26565029  0.89492136    -0.80880
O194        O  0.29483324  0.23019936  0.07430640    -0.80950
Co195      Co  0.20657904  0.20734972  0.95621576     1.51530
Co196      Co  0.26316922  0.27372044  0.03549198     1.51690
Co197      Co  0.24895168  0.20503000  0.05794620     1.51570
Co198      Co  0.25486277  0.27578859  0.97160982     1.51470
O199        O  0.24899440  0.23388021  0.99548809    -1.42840
C200        C  0.23240197  0.24255751  0.86594200     1.08710
C201        C  0.31396936  0.25412559  0.05149276     1.08800
C202        C  0.24188692  0.16891662  0.96609370     1.08740
C203        C  0.31771830  0.30585202  0.96608691     1.08710
O204        O  0.21379364  0.18386906  0.43669802    -0.80910
O205        O  0.24278330  0.30431977  0.51787187    -0.80930
O206        O  0.18610080  0.24395091  0.53546445    -0.80940
O207        O  0.28294565  0.28013729  0.39493194    -0.80880
O208        O  0.21690941  0.27392086  0.60035286    -0.81000
O209        O  0.23987544  0.23646983  0.39379058    -0.80920
O210        O  0.28454568  0.32163433  0.47033075    -0.80910
O211        O  0.18249711  0.20175039  0.46216872    -0.80950
C212        C  0.18547366  0.18045255  0.44003821     1.08780
C213        C  0.26302416  0.32568069  0.49169498     1.08670
C214        C  0.18921848  0.25933059  0.57734875     1.08800
C215        C  0.25896784  0.25940660  0.36934173     1.08680
O216        O  0.28291245  0.21526528  0.41550308    -0.80910
O217        O  0.26622320  0.25591650  0.61226221    -0.80990
O218        O  0.21308025  0.17970823  0.53678479    -0.80920
O219        O  0.30974503  0.29819978  0.54977865    -0.80900
O220        O  0.28752671  0.31890755  0.59858742    -0.80950
O221        O  0.26391835  0.20443483  0.51746518    -0.80920
O222        O  0.31147187  0.25549307  0.47051456    -0.80880
O223        O  0.21499958  0.22177386  0.61105384    -0.80950
Co224      Co  0.25454955  0.22396314  0.45667662     1.51530
Co225      Co  0.25676507  0.28050041  0.56098681     1.51690
Co226      Co  0.20198110  0.21431945  0.53417579     1.51570
Co227      Co  0.29155490  0.28459069  0.47413036     1.51470
O228        O  0.24297491  0.24928763  0.50185504    -1.42840
C229        C  0.30990450  0.23455689  0.43732137     1.08710
C230        C  0.24157157  0.23682952  0.63645271     1.08800
C231        C  0.23944346  0.17955994  0.52988524     1.08740
C232        C  0.31273834  0.32221180  0.57536475     1.08710
C233        C  0.21454198  0.21503248  0.77851955    -0.21080
C234        C  0.23425613  0.24282697  0.80666828    -0.07640
C235        C  0.25754281  0.26778165  0.77829764     0.13230
C236        C  0.26078824  0.26450967  0.72357661    -0.21130
C237        C  0.24095825  0.23681772  0.69552809    -0.07650
C238        C  0.21734082  0.21168990  0.72378309     0.13210
C239        C  0.19530021  0.18091052  0.69720627    -0.24480
H240        H  0.19668342  0.19552548  0.79970405     0.14500
H241        H  0.27848349  0.28407696  0.70232010     0.14530
C242        C  0.28030157  0.29733218  0.80591090    -0.24430
H243        H  0.18080457  0.16322117  0.72632070     0.04740
H244        H  0.20995663  0.17272534  0.67573695     0.07970
H245        H  0.17797516  0.18271277  0.66935503     0.07970
H246        H  0.29451714  0.29213545  0.83512031     0.07950
H247        H  0.26678025  0.30737857  0.82581151     0.07950
H248        H  0.29715478  0.31450574  0.77807794     0.04730
C249        C  0.22646731  0.23661427  0.22645660    -0.21080
C250        C  0.25439731  0.25438368  0.19810679    -0.07640
C251        C  0.28270590  0.27650837  0.22619312     0.13230
C252        C  0.28259914  0.27896591  0.28173409    -0.21130
C253        C  0.25519797  0.25992969  0.31052113    -0.07650
C254        C  0.22632322  0.23911911  0.28200394     0.13210
C255        C  0.19509616  0.21921267  0.30920544    -0.24480
H256        H  0.20462494  0.22026884  0.20496741     0.14500
H257        H  0.30470238  0.29493172  0.30299279     0.14530
C258        C  0.31378720  0.29666267  0.19864145    -0.24430
H259        H  0.17457309  0.20697751  0.28032489     0.04740
H260        H  0.18920951  0.23369487  0.33568442     0.07970
H261        H  0.19702067  0.20131379  0.33219904     0.07970
H262        H  0.31052752  0.31251774  0.17185051     0.07950
H263        H  0.32133226  0.28215601  0.17562636     0.07950
H264        H  0.33376860  0.31114013  0.22724337     0.04730
C265        C  0.29525570  0.38273865  0.48918036    -0.21080
C266        C  0.26521136  0.35674841  0.49587303    -0.07640
C267        C  0.24006133  0.36136216  0.51579249     0.13230
C268        C  0.24666274  0.39096009  0.53351126    -0.21130
C269        C  0.27676408  0.41727624  0.52657196    -0.07650
C270        C  0.30078644  0.41259256  0.50187221     0.13210
C271        C  0.33154973  0.43859553  0.48484971    -0.24480
H272        H  0.31470894  0.37975487  0.47350393     0.14500
H273        H  0.22756062  0.39372947  0.55116842     0.14530
C274        C  0.20578323  0.33561664  0.51591407    -0.24430
H275        H  0.34813177  0.43115977  0.46766248     0.04740
H276        H  0.34366374  0.45323086  0.51967564     0.07970
H277        H  0.32582724  0.45082016  0.45408316     0.07970
H278        H  0.20393598  0.31773904  0.54268713     0.07950
H279        H  0.19802514  0.32540964  0.47532576     0.07950
H280        H  0.18885773  0.34353846  0.52959498     0.04730
C281        C  0.21551776  0.09383864  0.53217071    -0.21080
C282        C  0.22456034  0.08921240  0.48138154    -0.07640
C283        C  0.24036533  0.11494720  0.44895622     0.13230
C284        C  0.24677833  0.14422735  0.46769595    -0.21130
C285        C  0.23770839  0.14907053  0.51825979    -0.07650
C286        C  0.22137667  0.12318060  0.55053792     0.13210
C287        C  0.21108925  0.12658739  0.60506542    -0.24480
H288        H  0.20464581  0.07457679  0.55834353     0.14500
H289        H  0.25776246  0.16318880  0.44137432     0.14530
C290        C  0.25059243  0.11146675  0.39423069    -0.24430
H291        H  0.20002977  0.10443693  0.62609442     0.04740
H292        H  0.19292668  0.13448224  0.60221567     0.07970
H293        H  0.23244952  0.14356412  0.62894692     0.07970
H294        H  0.22915067  0.09466976  0.37029265     0.07950
H295        H  0.26841684  0.10312144  0.39673103     0.07950
H296        H  0.26191355  0.13364759  0.37329796     0.04730
C297        C  0.23848650  0.01347398  0.71871319    -0.21080
C298        C  0.24587858  0.99466899  0.68632842    -0.07640
C299        C  0.24539703  0.46834819  0.70837490     0.13230
C300        C  0.23923630  0.46273908  0.76241432    -0.21130
C301        C  0.23387366  0.48268565  0.79544757    -0.07650
C302        C  0.23284836  0.00813737  0.77283841     0.13210
C303        C  0.22782238  0.03103378  0.80541184    -0.24480
H304        H  0.23818809  0.03329441  0.70196092     0.14500
H305        H  0.23970436  0.44305907  0.77946510     0.14530
C306        C  0.25245313  0.44652437  0.67643723    -0.24430
H307        H  0.22856623  0.04978493  0.78101702     0.04740
H308        H  0.24729972  0.04191254  0.83631188     0.07970
H309        H  0.20387276  0.01938729  0.82392370     0.07970
H310        H  0.27715915  0.45907640  0.66072352     0.07950
H311        H  0.23441260  0.43583813  0.64330827     0.07950
H312        H  0.25124076  0.42754060  0.70071774     0.04730
C313        C  0.22727762  0.48349769  0.21621647    -0.21080
C314        C  0.25192655  0.01028700  0.19523601    -0.07080
C315        C  0.27257338  0.03537755  0.22924802     0.13230
C316        C  0.26844623  0.03283010  0.28413048    -0.21130
C317        C  0.24450237  0.50564403  0.30528857    -0.07650
C318        C  0.22319653  0.48089431  0.27110278     0.13210
C319        C  0.19590937  0.45186313  0.29233632    -0.24480
H320        H  0.21147922  0.46455011  0.18965118     0.14500
H321        H  0.28471705  0.05155282  0.31067862     0.14530
C322        C  0.29976286  0.06437301  0.20779614    -0.24430
H323        H  0.18123592  0.43530140  0.25993738     0.04740
H324        H  0.17970436  0.45764202  0.31512714     0.07970
H325        H  0.20549271  0.44020619  0.31838624     0.07970
H326        H  0.28983781  0.07535625  0.18085413     0.07950
H327        H  0.31635266  0.05876777  0.18569110     0.07950
H328        H  0.31403761  0.08133278  0.23996391     0.04730
C329        C  0.23980751  0.35753561  0.03702597    -0.21080
C330        C  0.26953309  0.35932028  0.02751865    -0.07640
C331        C  0.29760594  0.38805118  0.02556487     0.13230
C332        C  0.29447951  0.41455889  0.02491398    -0.21130
C333        C  0.26405378  0.41254508  0.02903581    -0.07650
C334        C  0.23718498  0.38417354  0.04036679     0.13210
C335        C  0.20626903  0.38208267  0.05693740    -0.24480
H336        H  0.21851665  0.33528167  0.04089161     0.14500
H337        H  0.31554803  0.43666989  0.01890467     0.14530
C338        C  0.33032099  0.39054910  0.02236459    -0.24430
H339        H  0.18755625  0.35809651  0.06502210     0.04740
H340        H  0.19764286  0.39053541  0.02434628     0.07970
H341        H  0.21048451  0.39665611  0.09311869     0.07970
H342        H  0.33490037  0.37967084  0.05723795     0.07950
H343        H  0.33088717  0.37849620  0.98582771     0.07950
H344        H  0.34985852  0.41488455  0.02123418     0.04730
C345        C  0.27688267  0.14550964  0.94800119    -0.21080
C346        C  0.24630144  0.14357751  0.94247849    -0.07640
C347        C  0.22038253  0.11608849  0.92060100     0.13230
C348        C  0.22471606  0.09037154  0.91244373    -0.21130
C349        C  0.25370230  0.09078151  0.92761426    -0.07650
C350        C  0.28106455  0.11962562  0.94008583     0.13210
C351        C  0.31456992  0.12357081  0.94544865    -0.24480
H352        H  0.29740628  0.16698683  0.96172906     0.14500
H353        H  0.20408173  0.06885757  0.89913309     0.14530
C354        C  0.18734029  0.11249517  0.90972529    -0.24430
H355        H  0.33313326  0.14820263  0.95069127     0.04740
H356        H  0.32010994  0.11440940  0.90909649     0.07970
H357        H  0.31684731  0.11155361  0.98029068     0.07970
H358        H  0.18895623  0.12997042  0.88122819     0.07950
H359        H  0.17699213  0.11503111  0.94732565     0.07950
H360        H  0.17036251  0.08949326  0.89201445     0.04730
C361        C  0.35146315  0.12872105  0.58198039    -0.21080
C362        C  0.35528564  0.10221489  0.58586065    -0.07640
C363        C  0.38683522  0.10724979  0.59707963     0.13230
C364        C  0.41329316  0.13722355  0.59711453    -0.21130
C365        C  0.40960986  0.16275162  0.58463858    -0.07650
C366        C  0.37814847  0.15880975  0.58149644     0.13210
C367        C  0.37271039  0.18620983  0.57916308    -0.24480
H368        H  0.32742873  0.12587070  0.57669603     0.14500
H369        H  0.43745853  0.14011605  0.60027216     0.14530
C370        C  0.39417695  0.08153813  0.59850255    -0.24430
H371        H  0.34658978  0.17908629  0.57707821     0.04740
H372        H  0.38405632  0.20022161  0.54423043     0.07970
H373        H  0.38349269  0.20090649  0.61539562     0.07970
H374        H  0.39178622  0.07352430  0.55678152     0.07950
H375        H  0.37773198  0.06341411  0.62531016     0.07950
H376        H  0.41935591  0.08907274  0.61240354     0.04730
C377        C  0.12223907  0.40651011  0.40621502    -0.21080
C378        C  0.15247629  0.41188185  0.42483698    -0.07640
C379        C  0.15581147  0.38580258  0.43816773     0.13230
C380        C  0.12825495  0.35741961  0.44660771    -0.21130
C381        C  0.09736835  0.35311958  0.43549917    -0.07650
C382        C  0.09489777  0.37708524  0.40891024     0.13210
C383        C  0.06393110  0.37231583  0.38344040    -0.24480
H384        H  0.11989260  0.42529436  0.38986908     0.14500
H385        H  0.13092628  0.33855060  0.46225589     0.14530
C386        C  0.18813652  0.38714307  0.44186223    -0.24430
H387        H  0.06674543  0.39329480  0.36372131     0.04740
H388        H  0.04596462  0.36655772  0.41400510     0.07970
H389        H  0.05519188  0.35338263  0.35311913     0.07970
H390        H  0.20064081  0.39864568  0.47951226     0.07950
H391        H  0.20292471  0.39961554  0.40769548     0.07950
H392        H  0.18552911  0.36375866  0.44053752     0.04730
C393        C  0.39802668  0.25635235  0.42360416    -0.21080
C394        C  0.39773228  0.22847326  0.43353741    -0.07640
C395        C  0.36749756  0.20126780  0.43584562     0.13230
C396        C  0.33880492  0.20343685  0.43505174    -0.21130
C397        C  0.33957935  0.23195619  0.42948201    -0.07650
C398        C  0.36958003  0.25833488  0.42029896     0.13210
C399        C  0.37268088  0.28888605  0.40512468    -0.24480
H400        H  0.42086147  0.27717444  0.41900046     0.14500
H401        H  0.31582701  0.18288061  0.43975893     0.14530
C402        C  0.36522100  0.16996582  0.43610916    -0.24430
H403        H  0.38418002  0.29535961  0.36600571     0.04740
H404        H  0.38836028  0.30693037  0.43475438     0.07970
H405        H  0.34922549  0.28857172  0.40144831     0.07970
H406        H  0.37775535  0.16741645  0.47142293     0.07950
H407        H  0.37649915  0.16682354  0.40008032     0.07950
H408        H  0.33972696  0.15122689  0.43615114     0.04730
C409        C  0.16101878  0.28714856  0.61206388    -0.21080
C410        C  0.15998577  0.25950044  0.59622764    -0.07640
C411        C  0.12961125  0.23292015  0.58729474     0.13230
C412        C  0.10195654  0.23598762  0.58389744    -0.21130
C413        C  0.10377650  0.26488393  0.58899335    -0.07650
C414        C  0.13323428  0.29050513  0.60681737     0.13210
C415        C  0.13608685  0.32167992  0.61653056    -0.24480
H416        H  0.18397396  0.30688744  0.62347569     0.14500
H417        H  0.07895181  0.21584846  0.57396716     0.14530
C418        C  0.12615582  0.20122482  0.58006991    -0.24430
H419        H  0.16108448  0.33918547  0.62879491     0.04740
H420        H  0.11980113  0.32037482  0.64860424     0.07970
H421        H  0.12950316  0.32953806  0.57966599     0.07970
H422        H  0.13878658  0.19665433  0.61328753     0.07950
H423        H  0.13569036  0.19864140  0.54173398     0.07950
H424        H  0.10054510  0.18324692  0.57972768     0.04730
C425        C  0.00687314  0.29270369  0.78492933    -0.21080
C426        C  0.48866046  0.26404764  0.80842892    -0.07640
C427        C  0.47370481  0.23702889  0.77548988     0.13230
C428        C  0.47912415  0.23924981  0.72097074    -0.21130
C429        C  0.99875193  0.26759597  0.69792663    -0.07650
C430        C  0.01224189  0.29483553  0.73003603     0.13210
C431        C  0.03368202  0.32595276  0.70732449    -0.24480
H432        H  0.01809632  0.31337396  0.80991182     0.14500
H433        H  0.46842589  0.21850003  0.69610612     0.14530
C434        C  0.45158756  0.20563697  0.79696775    -0.24430
H435        H  0.04317471  0.34451205  0.73844195     0.04740
H436        H  0.01982416  0.33145104  0.67759097     0.07970
H437        H  0.05460411  0.32597607  0.68824914     0.07970
H438        H  0.43225812  0.20644687  0.81991705     0.07950
H439        H  0.46541358  0.19790912  0.82252190     0.07950
H440        H  0.43975988  0.18795054  0.76469937     0.04730
C441        C  0.03071842  0.25678558  0.29566893    -0.21080
C442        C  0.50167402  0.23387116  0.31692075    -0.07640
C443        C  0.47556862  0.21517592  0.28169816     0.13230
C444        C  0.47940205  0.21985571  0.22688152    -0.21130
C445        C  0.00820228  0.24315548  0.20641863    -0.07650
C446        C  0.03417499  0.26174923  0.24110450     0.13210
C447        C  0.06587829  0.28609923  0.22049236    -0.24480
H448        H  0.05097584  0.27132279  0.32199505     0.14500
H449        H  0.45975505  0.20517632  0.19956967     0.14530
C450        C  0.44353265  0.19074955  0.30109207    -0.24430
H451        H  0.08389664  0.29838991  0.25311632     0.04740
H452        H  0.06213453  0.30334813  0.19851208     0.07970
H453        H  0.07599365  0.27532574  0.19350287     0.07970
H454        H  0.43270774  0.20143656  0.32671493     0.07950
H455        H  0.44690078  0.17347799  0.32370974     0.07950
H456        H  0.42610445  0.17839067  0.26776109     0.04730
C457        C  0.34565190  0.13668554  0.09526356    -0.21080
C458        C  0.34602751  0.10936351  0.08289536    -0.07640
C459        C  0.37654828  0.11091937  0.07637913     0.13230
C460        C  0.40470111  0.13986720  0.07611712    -0.21130
C461        C  0.40369315  0.16757880  0.08088404    -0.07650
C462        C  0.37372737  0.16551728  0.09382632     0.13210
C463        C  0.36996028  0.19317905  0.10204401    -0.24480
H464        H  0.32271679  0.13571874  0.10240299     0.14500
H465        H  0.42745273  0.14093036  0.06689239     0.14530
C466        C  0.38007354  0.08274245  0.06626378    -0.24430
H467        H  0.34501835  0.18742726  0.11242061     0.04740
H468        H  0.37490767  0.20471098  0.06392359     0.07970
H469        H  0.38627226  0.20760558  0.13507428     0.07970
H470        H  0.36792054  0.07139940  0.02802473     0.07950
H471        H  0.36963142  0.06653163  0.09924063     0.07950
H472        H  0.40576789  0.08855083  0.06357052     0.04730
C473        C  0.11364131  0.35601102  0.00390000    -0.21080
C474        C  0.09963067  0.34000830  0.95590528    -0.07640
C475        C  0.11737814  0.35095403  0.90935341     0.13230
C476        C  0.14764103  0.37850901  0.91196048    -0.21130
C477        C  0.15948946  0.39603842  0.95971293    -0.07650
C478        C  0.14142634  0.38475076  0.00588252     0.13210
C479        C  0.15033851  0.40253904  0.05827054    -0.24480
H480        H  0.10246410  0.34705510  0.04085354     0.14500
H481        H  0.16099051  0.38735406  0.87611231     0.14530
C482        C  0.10436667  0.33361777  0.85748771    -0.24430
H483        H  0.15200720  0.38812300  0.09006068     0.04740
H484        H  0.13131603  0.40844395  0.06855825     0.07970
H485        H  0.17374851  0.42415889  0.05812100     0.07970
H486        H  0.08090454  0.33235073  0.84707115     0.07950
H487        H  0.10071444  0.30988887  0.86096269     0.07950
H488        H  0.12120266  0.34496880  0.82484631     0.04730
C489        C  0.36896318  0.26238012  0.06462685    -0.21080
C490        C  0.34318414  0.25541388  0.02990079    -0.07640
C491        C  0.34399719  0.24579560  0.97673154     0.13230
C492        C  0.37061448  0.24304778  0.96014189    -0.21130
C493        C  0.39653277  0.25002940  0.99502023    -0.07650
C494        C  0.39574954  0.26022008  0.04807117     0.13210
C495        C  0.42148987  0.26587090  0.08973720    -0.24480
H496        H  0.36775546  0.26889910  0.10535798     0.14500
H497        H  0.37154233  0.23636285  0.91939843     0.14530
C498        C  0.31750342  0.23837214  0.93597911    -0.24430
H499        H  0.41561193  0.27124292  0.12953953     0.04740
H500        H  0.44490894  0.28470581  0.07967933     0.07970
H501        H  0.42491984  0.24571874  0.09280783     0.07970
H502        H  0.32721651  0.25452138  0.90273632     0.07950
H503        H  0.29711771  0.24019813  0.95212976     0.07950
H504        H  0.30811628  0.21455479  0.92004009     0.04730
C505        C  0.13233826  0.24363034  0.97129041    -0.21080
C506        C  0.15901998  0.25359998  0.00632988    -0.07640
C507        C  0.15681661  0.26392922  0.05819162     0.13230
C508        C  0.12903773  0.26573539  0.07190320    -0.21130
C509        C  0.10253142  0.25615260  0.03647693    -0.07650
C510        C  0.10424351  0.24456831  0.98533271     0.13210
C511        C  0.07737289  0.23396318  0.94382205    -0.24480
H512        H  0.13361349  0.23531394  0.93196987     0.14500
H513        H  0.12770212  0.27411506  0.11114375     0.14530
C514        C  0.18270266  0.27159423  0.10049090    -0.24430
H515        H  0.08314624  0.22538572  0.90698160     0.04740
H516        H  0.07343414  0.25323792  0.93238220     0.07970
H517        H  0.05478217  0.21477981  0.95823809     0.07970
H518        H  0.20569918  0.29165247  0.08928514     0.07950
H519        H  0.18642500  0.25142875  0.10632887     0.07950
H520        H  0.17602890  0.27747997  0.13919366     0.04730
C521        C  0.34483468  0.38061548  0.59177008    -0.21080
C522        C  0.34386070  0.35291727  0.57431000    -0.07640
C523        C  0.37253716  0.35546869  0.55294228     0.13230
C524        C  0.39937524  0.38466415  0.54555079    -0.21130
C525        C  0.39991033  0.41247815  0.55977244    -0.07650
C526        C  0.37267028  0.41008554  0.58605076     0.13210
C527        C  0.37357410  0.43816876  0.61074946    -0.24480
H528        H  0.32368612  0.37930516  0.60984539     0.14500
H529        H  0.42019777  0.38553045  0.52698526     0.14530
C530        C  0.37563082  0.32764389  0.53729559    -0.24430
H531        H  0.35028238  0.43267118  0.62889075     0.04740
H532        H  0.37894508  0.45583545  0.58075317     0.07970
H533        H  0.39288314  0.44798761  0.64216419     0.07970
H534        H  0.35923588  0.31540243  0.50293861     0.07950
H535        H  0.36985679  0.31205652  0.57131187     0.07950
H536        H  0.40047210  0.33397216  0.52531300     0.04730
C537        C  0.09728553  0.11745612  0.42901046    -0.21080
C538        C  0.09989038  0.09256915  0.44919548    -0.07640
C539        C  0.13093080  0.09560240  0.45652091     0.13230
C540        C  0.15845126  0.12380505  0.44681919    -0.21130
C541        C  0.15615221  0.14969386  0.43143891    -0.07650
C542        C  0.12497971  0.14598644  0.42014797     0.13210
C543        C  0.11998885  0.17149799  0.39859334    -0.24480
H544        H  0.07352649  0.11495585  0.42163800     0.14500
H545        H  0.18195363  0.12608155  0.45475925     0.14530
C546        C  0.13524048  0.06901538  0.47420672    -0.24430
H547        H  0.10699388  0.17803039  0.42776231     0.04740
H548        H  0.10528680  0.16339498  0.36113986     0.07970
H549        H  0.14291257  0.19222113  0.38926305     0.07970
H550        H  0.12247409  0.04940763  0.44571582     0.07950
H551        H  0.12592483  0.06218529  0.51462608     0.07950
H552        H  0.16087397  0.07486454  0.47511668     0.04730
C553        C  0.36192416  0.50231871  0.39554298    -0.21080
C554        C  0.35548644  0.51017676  0.44626011    -0.07640
C555        C  0.37505586  0.51108820  0.49038511     0.13230
C556        C  0.39906620  0.50378357  0.48253812    -0.21130
C557        C  0.40602635  0.49658073  0.43321154    -0.07650
C558        C  0.38702434  0.49511024  0.38857358     0.13210
C559        C  0.39151294  0.48469760  0.33477715    -0.24480
H560        H  0.34614290  0.49995717  0.36208797     0.14500
H561        H  0.41223515  0.50295495  0.51697023     0.14530
C562        C  0.37029225  0.51527003  0.54829535    -0.24430
H563        H  0.36864891  0.46432883  0.32085032     0.04740
H564        H  0.41060112  0.47793301  0.33539341     0.07970
H565        H  0.39797337  0.00348470  0.30626579     0.07970
H566        H  0.36225147  0.49372718  0.57003343     0.07950
H567        H  0.35328666  0.02352881  0.55577506     0.07950
H568        H  0.39397630  0.53136658  0.56734808     0.04730
C569        C  0.11159418  0.00262757  0.58095658    -0.21080
C570        C  0.09598664  0.99167025  0.53083940    -0.07640
C571        C  0.10995762  0.97992238  0.49449268     0.13230
C572        C  0.13551746  0.97566358  0.51156834    -0.21130
C573        C  0.15443439  0.99119031  0.55650809    -0.07650
C574        C  0.14186615  0.00436303  0.59275995     0.13210
C575        C  0.15994435  0.01974741  0.64365005    -0.24480
H576        H  0.10171861  0.01236836  0.60876086     0.14500
H577        H  0.14328019  0.96370397  0.48554622     0.14530
C578        C  0.10110291  0.97473118  0.43594590    -0.24430
H579        H  0.14610142  0.52761526  0.66841115     0.04740
H580        H  0.18338908  0.04017409  0.63526319     0.07970
H581        H  0.16438529  0.50327326  0.66679955     0.07970
H582        H  0.10635806  0.99673876  0.41754152     0.07950
H583        H  0.07562271  0.45773630  0.42895873     0.07950
H584        H  0.11557204  0.96647134  0.41423425     0.04730
C585        C  0.03183532  0.41010682  0.48314547    -0.21080
C586        C  0.01675765  0.41066838  0.43523414    -0.07640
C587        C  0.49431389  0.38259433  0.41023720     0.13230
C588        C  0.48698095  0.35474854  0.43432227    -0.21130
C589        C  0.00201774  0.35427064  0.48280149    -0.07650
C590        C  0.02464624  0.38265855  0.50772115     0.13210
C591        C  0.04069811  0.38482801  0.56116079    -0.24480
H592        H  0.04674744  0.43154201  0.50470180     0.14500
H593        H  0.47023136  0.33330613  0.41412742     0.14530
C594        C  0.47692896  0.38223199  0.35940897    -0.24430
H595        H  0.05362118  0.40885400  0.57735788     0.04740
H596        H  0.05906104  0.37723640  0.55781229     0.07970
H597        H  0.02226522  0.37065970  0.59011370     0.07970
H598        H  0.49481716  0.39449102  0.32853315     0.07950
H599        H  0.46227042  0.39380698  0.36580851     0.07950
H600        H  0.46044831  0.35837753  0.34452121     0.04730
C601        C  0.01055284  0.14096872  0.52883043    -0.21080
C602        C  0.48430379  0.13930383  0.49861258    -0.07640
C603        C  0.45852982  0.10970803  0.48399639     0.13230
C604        C  0.46030015  0.08329645  0.49844403    -0.21130
C605        C  0.48655861  0.08512094  0.52798939    -0.07650
C606        C  0.01179063  0.11433913  0.54388328     0.13210
C607        C  0.03928223  0.11725659  0.57870607    -0.24480
H608        H  0.03009594  0.16325323  0.54177637     0.14500
H609        H  0.44122836  0.06101969  0.48556209     0.14530
C610        C  0.42903943  0.10539147  0.45310450    -0.24430
H611        H  0.05476715  0.14125309  0.59307977     0.04740
H612        H  0.05423037  0.10962061  0.55648668     0.07970
H613        H  0.02968072  0.10293321  0.61419583     0.07970
H614        H  0.43627185  0.11745217  0.41493986     0.07950
H615        H  0.41583722  0.11449285  0.47664451     0.07950
H616        H  0.41198157  0.08070093  0.44388871     0.04730
C617        C  0.48673439  0.98463920  0.70297911    -0.21080
C618        C  0.51542710  0.50844509  0.68304352    -0.07640
C619        C  0.04249313  0.52436271  0.71837379     0.13230
C620        C  0.03933634  0.51720615  0.77237042    -0.21130
C621        C  0.51005965  0.99471961  0.79268846    -0.07650
C622        C  0.48360632  0.97756149  0.75697526     0.13210
C623        C  0.45142526  0.95269756  0.77520543    -0.24480
H624        H  0.46605476  0.97183453  0.67637310     0.14500
H625        H  0.05974324  0.53016407  0.79945563     0.14530
C626        C  0.07474624  0.54929046  0.70050767    -0.24430
H627        H  0.43355189  0.94205516  0.74179608     0.04740
H628        H  0.44129074  0.96255622  0.80388218     0.07970
H629        H  0.45437853  0.43412199  0.79398774     0.07970
H630        H  0.07226220  0.06877087  0.68469960     0.07950
H631        H  0.08418222  0.53988289  0.66969982     0.07950
H632        H  0.09300125  0.55863701  0.73360335     0.04730
C633        C  0.47620496  0.00386907  0.20678552    -0.21080
C634        C  0.97744767  0.48060744  0.17630023    -0.07640
C635        C  0.97392883  0.45399594  0.20233453     0.13230
C636        C  0.97133082  0.45246555  0.25776309    -0.21130
C637        C  0.97399022  0.97739160  0.28830183    -0.07650
C638        C  0.47553615  0.00312463  0.26227719     0.13210
C639        C  0.47812650  0.03074141  0.29243411    -0.24480
H640        H  0.47837360  0.02412426  0.18757578     0.14500
H641        H  0.97010002  0.43276158  0.27771929     0.14530
C642        C  0.97412239  0.42751962  0.17293222    -0.24430
H643        H  0.47540808  0.04694393  0.26568739     0.04740
H644        H  0.50215384  0.04369799  0.31266680     0.07970
H645        H  0.45912085  0.02343831  0.32225984     0.07970
H646        H  0.99830672  0.93487213  0.15670491     0.07950
H647        H  0.95570889  0.41926616  0.14038207     0.07950
H648        H  0.96846800  0.40783104  0.19907567     0.04730
C649        C  0.38430982  0.38368561  0.93325423    -0.21080
C650        C  0.40471869  0.38894245  0.97750038    -0.07640
C651        C  0.39812317  0.36537982  0.01281654     0.13230
C652        C  0.37266988  0.33608997  0.00052335    -0.21130
C653        C  0.35068921  0.33082198  0.95793197    -0.07650
C654        C  0.35693011  0.35520805  0.92366903     0.13210
C655        C  0.33478075  0.35241562  0.87840770    -0.24480
H656        H  0.39000153  0.40218198  0.90586360     0.14500
H657        H  0.36779303  0.31811163  0.02834777     0.14530
C658        C  0.41621511  0.37152002  0.06499508    -0.24430
H659        H  0.34178285  0.37500223  0.86036600     0.04740
H660        H  0.30965878  0.34312260  0.89173981     0.07970
H661        H  0.33700727  0.33772834  0.84749957     0.07970
H662        H  0.41069950  0.38695821  0.08953343     0.07950
H663        H  0.44249977  0.38290475  0.05917511     0.07950
H664        H  0.40896724  0.35005629  0.08707887     0.04730
C665        C  0.14083181  0.14636339  0.97089648    -0.21080
C666        C  0.14954174  0.15024022  0.02522030    -0.07640
C667        C  0.12731702  0.13309573  0.06321813     0.13230
C668        C  0.09685232  0.11076916  0.04563921    -0.21130
C669        C  0.08920796  0.10445350  0.99099977    -0.07650
C670        C  0.11080228  0.12296002  0.95304294     0.13210
C671        C  0.10302308  0.11708329  0.89449440    -0.24480
H672        H  0.15798708  0.16094915  0.94224549     0.14500
H673        H  0.07954431  0.09664842  0.07463167     0.14530
C674        C  0.13581473  0.13823862  0.12167988    -0.24430
H675        H  0.12323726  0.13378251  0.87055615     0.04740
H676        H  0.08133177  0.11925952  0.88458243     0.07970
H677        H  0.09830909  0.09355457  0.88326116     0.07970
H678        H  0.14276588  0.16231668  0.13346739     0.07950
H679        H  0.15635302  0.13405222  0.13054500     0.07950
H680        H  0.11520018  0.12252532  0.14595661     0.04730
C681        C  0.39610336  0.49249177  0.98072672    -0.21080
C682        C  0.40446500  0.48896355  0.92896993    -0.07640
C683        C  0.38532187  0.98990214  0.88609775     0.13230
C684        C  0.35796399  0.99336408  0.89629082    -0.21130
C685        C  0.34988611  0.49727952  0.94822016    -0.07650
C686        C  0.36975335  0.49720379  0.99100304     0.13210
C687        C  0.36399365  0.50126790  0.04844668    -0.24480
H688        H  0.41086288  0.49228214  0.01391428     0.14500
H689        H  0.34277919  0.99309237  0.86342422     0.14530
C690        C  0.39292462  0.98615627  0.82978275    -0.24430
H691        H  0.36056780  0.48082708  0.07070407     0.04740
H692        H  0.34267709  0.50413660  0.05482967     0.07970
H693        H  0.38539918  0.52193550  0.06573328     0.07970
H694        H  0.39216579  0.96362570  0.82446907     0.07950
H695        H  0.41724857  0.00502508  0.82031026     0.07950
H696        H  0.37523611  0.98684649  0.80114095     0.04730
C697        C  0.11468335  0.01320397  0.09819748    -0.21080
C698        C  0.10016379  0.01695137  0.05175513    -0.07640
C699        C  0.11911914  0.52758055  0.00571166     0.13230
C700        C  0.15109413  0.53313825  0.00711557    -0.21130
C701        C  0.16469962  0.02717141  0.05193880    -0.07650
C702        C  0.14644182  0.01738659  0.09830037     0.13210
C703        C  0.16017269  0.01037205  0.14709262    -0.24480
H704        H  0.10044692  0.00497321  0.13336065     0.14500
H705        H  0.16478235  0.53996463  0.97115302     0.14530
C706        C  0.10684060  0.53273354  0.95325270    -0.24430
H707        H  0.14303705  0.00313577  0.18011752     0.04740
H708        H  0.18278247  0.03121693  0.16044107     0.07970
H709        H  0.16562041  0.99148134  0.13810446     0.07970
H710        H  0.12160368  0.55722119  0.94263394     0.07950
H711        H  0.08147315  0.52750224  0.95262818     0.07950
H712        H  0.10908550  0.51801531  0.92195446     0.04730
C713        C  0.05468824  0.38249275  0.01788285    -0.21080
C714        C  0.02796186  0.35788733  0.04147813    -0.07640
C715        C  0.49847697  0.35833241  0.03865258     0.13230
C716        C  0.49378825  0.37608376  0.00114603    -0.21130
C717        C  0.52014806  0.40306940  0.98420989    -0.07650
C718        C  0.05145767  0.40662476  0.99356578     0.13210
C719        C  0.08135708  0.43552978  0.97923107    -0.24480
H720        H  0.07796066  0.38363534  0.02005950     0.14500
H721        H  0.46980198  0.37344552  0.99632848     0.14530
C722        C  0.47339651  0.34418657  0.08004381    -0.24430
H723        H  0.09553554  0.42974642  0.95129199     0.04740
H724        H  0.09638507  0.44667676  0.01557310     0.07970
H725        H  0.07550473  0.45223832  0.96003932     0.07970
H726        H  0.47982784  0.33178101  0.10992151     0.07950
H727        H  0.44945025  0.32916956  0.06070929     0.07950
H728        H  0.47194476  0.36283040  0.10235556     0.04730
C729        C  0.46935687  0.12862455  0.95884588    -0.21080
C730        C  0.49252085  0.15352465  0.98940076    -0.07640
C731        C  0.01224535  0.14852106  0.02651752     0.13230
C732        C  0.00854667  0.11905046  0.03137498    -0.21130
C733        C  0.98555485  0.09394308  0.00078710    -0.07650
C734        C  0.46530271  0.09883889  0.96417869     0.13210
C735        C  0.43860111  0.07303040  0.93171260    -0.24480
H736        H  0.45329787  0.13226229  0.93242144     0.14500
H737        H  0.02450276  0.11587172  0.05874340     0.14530
C738        C  0.03781032  0.17402375  0.06106994    -0.24430
H739        H  0.42376843  0.08092673  0.90913827     0.04740
H740        H  0.42230542  0.05486948  0.95847743     0.07970
H741        H  0.44863695  0.06344962  0.90227087     0.07970
H742        H  0.02689090  0.18389745  0.08792880     0.07950
H743        H  0.05568471  0.19198323  0.03597214     0.07950
H744        H  0.05124668  0.16578435  0.08656248     0.04730
O745        O  0.00621462  0.56231946  0.03612275    -0.80910
O746        O  0.45003474  0.92090643  0.93191201    -0.80930
O747        O  0.45595868  0.50152727  0.89185713    -0.80940
O748        O  0.99624965  0.97126811  0.09378103    -0.80880
O749        O  0.43950333  0.96939836  0.95479286    -0.81000
O750        O  0.98729209  0.51029120  0.09857908    -0.80920
O751        O  0.45016834  0.93565292  0.01473194    -0.80910
O752        O  0.47486517  0.54581446  0.96488476    -0.80950
C753        C  0.98762519  0.56503076  0.00218350     1.08780
C754        C  0.43644854  0.91576969  0.97588649     1.08670
C755        C  0.43389373  0.48541450  0.92288744     1.08800
C756        C  0.98610139  0.98686193  0.11942265     1.08680
O757        O  0.05127790  0.51600054  0.08202864    -0.80910
O758        O  0.48450711  0.97039945  0.87350930    -0.80990
O759        O  0.04067636  0.57023123  0.94295169    -0.80920
O760        O  0.00359445  0.93221300  0.03263168    -0.80900
O761        O  0.51213772  0.94590548  0.94992182    -0.80950
O762        O  0.05920994  0.55372055  0.00666705    -0.80920
O763        O  0.04775146  0.98980302  0.01220186    -0.80880
O764        O  0.52348035  0.51794336  0.87840498    -0.80950
Co765      Co  0.02335476  0.53305803  0.05149983     1.51530
Co766      Co  0.47779833  0.96193569  0.95158680     1.51690
Co767      Co  0.49942554  0.53151417  0.92369014     1.51570
Co768      Co  0.99971350  0.96651805  0.01495831     1.51470
O769        O  0.00088219  0.50455272  0.98627096    -1.42840
C770        C  0.06483564  0.00667972  0.04976719     1.08710
C771        C  0.50668743  0.49362269  0.85131525     1.08800
C772        C  0.06196340  0.57468642  0.97780920     1.08740
C773        C  0.51304776  0.92887639  0.98810226     1.08710
O774        O  0.00182947  0.50292067  0.36692014    -0.80910
O775        O  0.46336197  0.53312650  0.55682170    -0.80930
O776        O  0.42867746  0.96372271  0.43864957    -0.80940
O777        O  0.06796667  0.55224630  0.50759967    -0.80880
O778        O  0.45968147  0.51319515  0.45294473    -0.81000
O779        O  0.04860758  0.54858057  0.42755225    -0.80920
O780        O  0.01188749  0.55321133  0.52363493    -0.80910
O781        O  0.46783986  0.95368203  0.37288341    -0.80950
C782        C  0.98052209  0.47807479  0.34605852     1.08780
C783        C  0.98768532  0.55626967  0.53881871     1.08670
C784        C  0.43354504  0.99109671  0.43520094     1.08800
C785        C  0.07043256  0.56354243  0.46228059     1.08680
O786        O  0.06766802  0.50468799  0.46721477    -0.80910
O787        O  0.43153080  0.96849512  0.53937512    -0.80990
O788        O  0.48961564  0.93382525  0.46431424    -0.80920
O789        O  0.04049227  0.53698338  0.60499518    -0.80900
O790        O  0.49066994  0.99868366  0.59524326    -0.80950
O791        O  0.02352753  0.95919593  0.40191039    -0.80920
O792        O  0.04663711  0.49335818  0.54675859    -0.80880
O793        O  0.45268607  0.94012537  0.52696287    -0.80950
Co794      Co  0.03317992  0.50351094  0.41867062     1.51530
Co795      Co  0.47572793  0.00632324  0.52130055     1.51690
Co796      Co  0.46177312  0.94999686  0.45233622     1.51570
Co797      Co  0.02613644  0.51971919  0.53569682     1.51470
O798        O  0.99964913  0.49153886  0.47519553    -1.42840
C799        C  0.06813106  0.49606288  0.51435184     1.08710
C800        C  0.42938895  0.94215983  0.54402370     1.08800
C801        C  0.01035541  0.93636764  0.43269064     1.08740
C802        C  0.51571280  0.01555385  0.62558125     1.08710
O803        O  0.43416858  0.69100964  0.00662733    -0.80910
O804        O  0.04946372  0.82234742  0.05766744    -0.80930
O805        O  0.00664963  0.71897671  0.12581642    -0.80940
O806        O  0.45093534  0.77666649  0.98949835    -0.80880
O807        O  0.01871614  0.76757312  0.12048685    -0.81000
O808        O  0.42899823  0.73245915  0.94562069    -0.80920
O809        O  0.00010382  0.80459040  0.04725257    -0.80910
O810        O  0.45340492  0.71770867  0.08145722    -0.80950
C811        C  0.43094954  0.69476037  0.05551091     1.08780
C812        C  0.02630616  0.82787331  0.05529560     1.08670
C813        C  0.01205954  0.74367362  0.14872979     1.08800
C814        C  0.42677322  0.75239682  0.97523926     1.08680
O815        O  0.48687489  0.73975094  0.88857619    -0.80910
O816        O  0.07829980  0.78409318  0.07640130    -0.80990
O817        O  0.98526765  0.68982224  0.03663993    -0.80920
O818        O  0.04231044  0.81943010  0.95463311    -0.80900
O819        O  0.06096628  0.78877352  0.97620492    -0.80950
O820        O  0.48987532  0.69683617  0.95169843    -0.80920
O821        O  0.48529067  0.78321539  0.89466388    -0.80880
O822        O  0.04513148  0.73900972  0.03847936    -0.80950
Co823      Co  0.46281753  0.71800358  0.95064165     1.51530
Co824      Co  0.03797500  0.77679422  0.04408542     1.51690
Co825      Co  0.99947382  0.73214234  0.05992792     1.51570
Co826      Co  0.49457942  0.79368683  0.97273334     1.51470
O827        O  0.99517285  0.75488928  0.99816389    -1.42840
C828        C  0.48672449  0.76235814  0.86708451     1.08710
C829        C  0.07415748  0.75946997  0.05309095     1.08800
C830        C  0.48997831  0.68189090  0.99201428     1.08740
C831        C  0.06577122  0.81387058  0.95753242     1.08710
O832        O  0.43692386  0.70187703  0.52033279    -0.80910
O833        O  0.02266042  0.82596186  0.52680133    -0.80930
O834        O  0.01427331  0.74691598  0.62618601    -0.80940
O835        O  0.45323511  0.74904828  0.41582597    -0.80880
O836        O  0.00872038  0.78751485  0.61081574    -0.81000
O837        O  0.43458305  0.71395651  0.47645334    -0.80920
O838        O  0.98028074  0.80015064  0.47521832    -0.80910
O839        O  0.46632207  0.69655175  0.58152563    -0.80950
C840        C  0.43851709  0.68983686  0.56359680     1.08780
C841        C  0.99988791  0.82484480  0.49872121     1.08670
C842        C  0.00699513  0.76717008  0.64173321     1.08800
C843        C  0.42973362  0.72987950  0.44176618     1.08680
O844        O  0.47570688  0.71364740  0.40102647    -0.80910
O845        O  0.06671828  0.78492548  0.59195749    -0.80990
O846        O  0.00878613  0.69479304  0.49891125    -0.80920
O847        O  0.04144023  0.81596907  0.43435548    -0.80900
O848        O  0.07133492  0.81158669  0.49593795    -0.80950
O849        O  0.45909038  0.66958602  0.47072802    -0.80920
O850        O  0.51882527  0.75730720  0.40108953    -0.80880
O851        O  0.05636413  0.74846350  0.53649007    -0.80950
Co852      Co  0.47743931  0.71378389  0.48178701     1.51530
Co853      Co  0.03827075  0.79788616  0.55208601     1.51690
Co854      Co  0.01106334  0.72547166  0.55579119     1.51570
Co855      Co  0.49904725  0.77775854  0.43930067     1.51470
O856        O  0.00259472  0.75756747  0.50981226    -1.42840
C857        C  0.49904309  0.73380149  0.37563424     1.08710
C858        C  0.07493940  0.76686376  0.57131767     1.08800
C859        C  0.48382497  0.66873486  0.48794745     1.08740
C860        C  0.06882123  0.82492772  0.45535447     1.08710
O861        O  0.22189611  0.54618361  0.04059080    -0.80910
O862        O  0.24454753  0.94103087  0.97961839    -0.80930
O863        O  0.17997245  0.94921766  0.96804495    -0.80940
O864        O  0.27132252  0.49810583  0.11851073    -0.80880
O865        O  0.21634416  0.93515500  0.95354646    -0.81000
O866        O  0.25051908  0.52853046  0.11042602    -0.80920
O867        O  0.28095123  0.96431308  0.04537177    -0.80910
O868        O  0.18844169  0.99717776  0.02870247    -0.80950
C869        C  0.19346343  0.52343322  0.04327929     1.08780
C870        C  0.26185360  0.94039742  0.01889906     1.08670
C871        C  0.18670068  0.92817298  0.95937669     1.08800
C872        C  0.25732147  0.51159689  0.13821153     1.08680
O873        O  0.28846577  0.58223093  0.06522788    -0.80910
O874        O  0.24791187  0.96485722  0.87272236    -0.80990
O875        O  0.22332326  0.53768596  0.94369855    -0.80920
O876        O  0.31902444  0.51938107  0.98530970    -0.80900
O877        O  0.29278619  0.97751437  0.93894276    -0.80950
O878        O  0.27400289  0.55880248  0.96505168    -0.80920
O879        O  0.31350476  0.55475825  0.06451485    -0.80880
O880        O  0.22028770  0.98955561  0.88472712    -0.80950
Co881      Co  0.26244575  0.54157577  0.03656885     1.51530
Co882      Co  0.25172876  0.97974300  0.94274846     1.51690
Co883      Co  0.20710441  0.99376848  0.96146177     1.51570
Co884      Co  0.29165440  0.50791266  0.04911071     1.51470
O885        O  0.24734747  0.49858395  0.00922479    -1.42840
C886        C  0.31437571  0.58084569  0.07147921     1.08710
C887        C  0.23340025  0.97820988  0.85354637     1.08800
C888        C  0.25122128  0.56070109  0.94247065     1.08740
C889        C  0.31941492  0.99858875  0.95691591     1.08710
O890        O  0.21126410  0.52662654  0.56218674    -0.80910
O891        O  0.25383129  0.95066155  0.52228728    -0.80930
O892        O  0.17876548  0.96827957  0.42065015    -0.80940
O893        O  0.25820759  0.48707582  0.59783197    -0.80880
O894        O  0.20360885  0.94711832  0.46271811    -0.81000
O895        O  0.26349944  0.53181871  0.61847219    -0.80920
O896        O  0.30309878  0.97327352  0.55152108    -0.80910
O897        O  0.19596167  0.98128882  0.52840665    -0.80950
C898        C  0.18911177  0.49902681  0.55420645     1.08780
C899        C  0.27858773  0.94836023  0.53476799     1.08670
C900        C  0.17982518  0.94397949  0.43356127     1.08800
C901        C  0.25577970  0.50462586  0.63129638     1.08680
O902        O  0.30605386  0.57230673  0.53908525    -0.80910
O903        O  0.24859221  0.98138085  0.38155827    -0.80990
O904        O  0.20589330  0.53402270  0.46490388    -0.80920
O905        O  0.32212441  0.52604351  0.48815878    -0.80900
O906        O  0.29838131  0.98441065  0.44014620    -0.80950
O907        O  0.25621607  0.56577172  0.48197831    -0.80920
O908        O  0.32103992  0.54471656  0.58581553    -0.80880
O909        O  0.23648010  0.01763121  0.39322298    -0.80950
Co910      Co  0.25939873  0.54684301  0.54701073     1.51530
Co911      Co  0.25192315  0.97079108  0.45584551     1.51690
Co912      Co  0.21719946  0.99867853  0.46056413     1.51570
Co913      Co  0.28954032  0.50574239  0.54125876     1.51470
O914        O  0.25974238  0.51370057  0.49648567    -1.42840
C915        C  0.32642850  0.57131039  0.57037564     1.08710
C916        C  0.24374517  0.00202080  0.36284766     1.08800
C917        C  0.22862670  0.56175549  0.47196956     1.08740
C918        C  0.32398740  0.00808351  0.45557509     1.08710
O919        O  0.18811466  0.70046572  0.02549537    -0.80910
O920        O  0.27339612  0.81606375  0.05548388    -0.80930
O921        O  0.23569697  0.72267905  0.11865058    -0.80940
O922        O  0.21498575  0.76691434  0.01053012    -0.80880
O923        O  0.27116686  0.77091459  0.11116223    -0.81000
O924        O  0.18617212  0.73453545  0.94957032    -0.80920
O925        O  0.26204500  0.81812477  0.97051482    -0.80910
O926        O  0.20372644  0.66995839  0.05258343    -0.80950
C927        C  0.18103088  0.67473433  0.04035470     1.08780
C928        C  0.26946440  0.83059176  0.01714142     1.08670
C929        C  0.25357883  0.74900003  0.13979865     1.08800
C930        C  0.18799523  0.75188541  0.98784358     1.08680
O931        O  0.22562925  0.71745000  0.88713561    -0.80910
O932        O  0.30718246  0.77575063  0.04273687    -0.80990
O933        O  0.26121999  0.68499388  0.00333895    -0.80920
O934        O  0.29592146  0.79096863  0.93212949    -0.80900
O935        O  0.30959723  0.79837295  0.01393171    -0.80950
O936        O  0.21786287  0.67258259  0.95233876    -0.80920
O937        O  0.23618612  0.76565922  0.89491962    -0.80880
O938        O  0.29482622  0.73021140  0.07432081    -0.80950
Co939      Co  0.20657620  0.70736054  0.95622045     1.51530
Co940      Co  0.26316678  0.77373191  0.03549612     1.51690
Co941      Co  0.24894448  0.70504328  0.05795994     1.51570
Co942      Co  0.25486140  0.77579986  0.97161214     1.51470
O943        O  0.24899136  0.73389130  0.99549470    -1.42840
C944        C  0.23240631  0.74256464  0.86594507     1.08710
C945        C  0.31396253  0.75413384  0.05149800     1.08800
C946        C  0.24187904  0.66892425  0.96611483     1.08740
C947        C  0.31771872  0.80586601  0.96609503     1.08710
O948        O  0.21379771  0.68387203  0.43669782    -0.80910
O949        O  0.24278972  0.80432225  0.51788529    -0.80930
O950        O  0.18610617  0.74395200  0.53547176    -0.80940
O951        O  0.28295028  0.78014256  0.39493881    -0.80880
O952        O  0.21691468  0.77391977  0.60036237    -0.81000
O953        O  0.23988042  0.73647463  0.39379397    -0.80920
O954        O  0.28455101  0.82163645  0.47034116    -0.80910
O955        O  0.18250189  0.70175334  0.46217199    -0.80950
C956        C  0.18547779  0.68045557  0.44003982     1.08780
C957        C  0.26302986  0.82568280  0.49170665     1.08670
C958        C  0.18922385  0.75933061  0.57735741     1.08800
C959        C  0.25897168  0.75941341  0.36934801     1.08680
O960        O  0.28291672  0.71526824  0.41550251    -0.80910
O961        O  0.26622811  0.75591368  0.61226599    -0.80990
O962        O  0.21308501  0.67970897  0.53678398    -0.80920
O963        O  0.30974964  0.79819915  0.54978544    -0.80900
O964        O  0.28753271  0.81890610  0.59859920    -0.80950
O965        O  0.26392302  0.70443577  0.51746387    -0.80920
O966        O  0.31147679  0.75549493  0.47051600    -0.80880
O967        O  0.21500436  0.72177235  0.61105746    -0.80950
Co968      Co  0.25455419  0.72396574  0.45667794     1.51530
Co969      Co  0.25677054  0.78050024  0.56099533     1.51690
Co970      Co  0.20198608  0.71432034  0.53417920     1.51570
Co971      Co  0.29156008  0.78459280  0.47413665     1.51470
O972        O  0.24297994  0.74928938  0.50185986    -1.42840
C973        C  0.30990891  0.73455894  0.43732177     1.08710
C974        C  0.24157641  0.73682682  0.63645652     1.08800
C975        C  0.23944811  0.67956073  0.52988309     1.08740
C976        C  0.31274354  0.82221100  0.57537285     1.08710
C977        C  0.21454015  0.71503866  0.77852397    -0.21080
C978        C  0.23426330  0.74283114  0.80667176    -0.07640
C979        C  0.25756073  0.76777864  0.77830189     0.13230
C980        C  0.26080400  0.76450366  0.72358115    -0.21130
C981        C  0.24096342  0.73681486  0.69553235    -0.07650
C982        C  0.21733851  0.71169236  0.72378813     0.13210
C983        C  0.19528893  0.68091463  0.69721335    -0.24480
H984        H  0.19667485  0.69553627  0.79970893     0.14500
H985        H  0.27850683  0.78406646  0.70232522     0.14530
C986        C  0.28033280  0.79732404  0.80591505    -0.24430
H987        H  0.18078819  0.66322862  0.72632913     0.04740
H988        H  0.20993844  0.67272053  0.67574571     0.07970
H989        H  0.17796830  0.68272331  0.66936113     0.07970
H990        H  0.29454455  0.79211905  0.83512016     0.07950
H991        H  0.26682254  0.80738082  0.82581963     0.07950
H992        H  0.29718920  0.81449296  0.77807939     0.04730
C993        C  0.22646529  0.73663018  0.22646489    -0.21080
C994        C  0.25439396  0.75440173  0.19811338    -0.07640
C995        C  0.28270244  0.77652752  0.22619885     0.13230
C996        C  0.28259792  0.77898151  0.28174068    -0.21130
C997        C  0.25519893  0.75994127  0.31052894    -0.07650
C998        C  0.22632325  0.73913207  0.28201280     0.13210
C999        C  0.19509740  0.71922385  0.30921605    -0.24480
H1000       H  0.20462256  0.72028467  0.20497665     0.14500
H1001       H  0.30470140  0.79494750  0.30299863     0.14530
C1002       C  0.31378140  0.79668695  0.19864533    -0.24430
H1003       H  0.17457315  0.70699065  0.28033693     0.04740
H1004       H  0.18921197  0.73370445  0.33570132     0.07970
H1005       H  0.19702271  0.70132336  0.33220324     0.07970
H1006       H  0.31051662  0.81254039  0.17185756     0.07950
H1007       H  0.32132984  0.78218411  0.17562661     0.07950
H1008       H  0.33376262  0.81116627  0.22724624     0.04730
C1009       C  0.29526000  0.88274067  0.48918582    -0.21080
C1010       C  0.26521630  0.85675022  0.49588203    -0.07640
C1011       C  0.24006604  0.86136387  0.51580049     0.13230
C1012       C  0.24666702  0.89096201  0.53351702    -0.21130
C1013       C  0.27676795  0.91727825  0.52657530    -0.07650
C1014       C  0.30078987  0.91259466  0.50187402     0.13210
C1015       C  0.33155102  0.93859775  0.48484468    -0.24480
H1016       H  0.31471318  0.87975706  0.47350865     0.14500
H1017       H  0.22756477  0.89373145  0.55117352     0.14530
C1018       C  0.20578806  0.83561817  0.51592201    -0.24430
H1019       H  0.34813341  0.93116236  0.46765761     0.04740
H1020       H  0.34366591  0.95323596  0.51966720     0.07970
H1021       H  0.32582553  0.95081950  0.45407650     0.07970
H1022       H  0.20394087  0.81774071  0.54269539     0.07950
H1023       H  0.19803022  0.82541101  0.47533374     0.07950
H1024       H  0.18886235  0.84353991  0.52960205     0.04730
C1025       C  0.21552244  0.59383965  0.53216730    -0.21080
C1026       C  0.22456269  0.58921283  0.48137645    -0.07640
C1027       C  0.24036662  0.61494751  0.44895034     0.13230
C1028       C  0.24678073  0.64422793  0.46769080    -0.21130
C1029       C  0.23771284  0.64907143  0.51825619    -0.07650
C1030       C  0.22138235  0.62318183  0.55053527     0.13210
C1031       C  0.21109658  0.62658924  0.60506401    -0.24480
H1032       H  0.20465109  0.57457804  0.55834052     0.14500
H1033       H  0.25776388  0.66318932  0.44136863     0.14530
C1034       C  0.25059115  0.61146659  0.39422301    -0.24430
H1035       H  0.20003870  0.60443919  0.62609423     0.04740
H1036       H  0.19293317  0.63448308  0.60221572     0.07970
H1037       H  0.23245704  0.64356721  0.62894381     0.07970
H1038       H  0.22914825  0.59466972  0.37028706     0.07950
H1039       H  0.26841535  0.60312094  0.39672025     0.07950
H1040       H  0.26191160  0.63364734  0.37328995     0.04730
C1041       C  0.23848911  0.51348333  0.71870694    -0.21080
C1042       C  0.24587730  0.49467510  0.68632297    -0.07640
C1043       C  0.24540294  0.96834392  0.70837988     0.13230
C1044       C  0.23924327  0.96273394  0.76241992    -0.21130
C1045       C  0.23387651  0.98267765  0.79545384    -0.07650
C1046       C  0.23285010  0.50814751  0.77283220     0.13210
C1047       C  0.22782704  0.53104588  0.80540550    -0.24480
H1048       H  0.23819423  0.53330526  0.70195403     0.14500
H1049       H  0.23971534  0.94305577  0.77947051     0.14530
C1050       C  0.25246278  0.94652315  0.67644078    -0.24430
H1051       H  0.22857448  0.54979852  0.78101060     0.04740
H1052       H  0.24730328  0.54192232  0.83630808     0.07970
H1053       H  0.20387664  0.51940146  0.82391513     0.07970
H1054       H  0.27716836  0.95907812  0.66072618     0.07950
H1055       H  0.23442222  0.93583536  0.64331224     0.07950
H1056       H  0.25125376  0.92754046  0.70072052     0.04730
C1057       C  0.22730347  0.98349106  0.21621666    -0.21080
C1058       C  0.25192945  0.51027473  0.19523570    -0.07080
C1059       C  0.27260574  0.53535225  0.22924695     0.13230
C1060       C  0.26847808  0.53281073  0.28412908    -0.21130
C1061       C  0.24450165  0.00564484  0.30528989    -0.07650
C1062       C  0.22322233  0.98088202  0.27110228     0.13210
C1063       C  0.19596065  0.95183111  0.29233149    -0.24480
H1064       H  0.21152742  0.96453323  0.18965105     0.14500
H1065       H  0.28477004  0.55152239  0.31067679     0.14530
C1066       C  0.29982232  0.56432803  0.20779326    -0.24430
H1067       H  0.18130157  0.93526359  0.25992984     0.04740
H1068       H  0.17973535  0.95758082  0.31512671     0.07970
H1069       H  0.20556837  0.94019260  0.31837525     0.07970
H1070       H  0.28992191  0.57533580  0.18085793     0.07950
H1071       H  0.31638729  0.55869234  0.18568072     0.07950
H1072       H  0.31411721  0.58127866  0.23996038     0.04730
C1073       C  0.23981209  0.85754849  0.03705677    -0.21080
C1074       C  0.26953424  0.85933065  0.02752450    -0.07640
C1075       C  0.29760840  0.88805968  0.02556035     0.13230
C1076       C  0.29448487  0.91456843  0.02492101    -0.21130
C1077       C  0.26406148  0.91255660  0.02906391    -0.07650
C1078       C  0.23719363  0.88418812  0.04040950     0.13210
C1079       C  0.20628492  0.88210364  0.05701074    -0.24480
H1080       H  0.21852133  0.83529590  0.04093395     0.14500
H1081       H  0.31555281  0.93667834  0.01890102     0.14530
C1082       C  0.33032115  0.89055467  0.02233396    -0.24430
H1083       H  0.18756943  0.85811787  0.06509094     0.04740
H1084       H  0.19765507  0.89056716  0.02444038     0.07970
H1085       H  0.21051199  0.89667233  0.09320262     0.07970
H1086       H  0.33490632  0.87967275  0.05719625     0.07950
H1087       H  0.33087851  0.87850435  0.98578767     0.07950
H1088       H  0.34985996  0.91488956  0.02120301     0.04730
C1089       C  0.27687472  0.64551605  0.94803180    -0.21080
C1090       C  0.24629358  0.64358384  0.94250563    -0.07640
C1091       C  0.22037511  0.61609446  0.92062887     0.13230
C1092       C  0.22470934  0.59037779  0.91247228    -0.21130
C1093       C  0.25369607  0.59078811  0.92764213    -0.07650
C1094       C  0.28105735  0.61963230  0.94011760     0.13210
C1095       C  0.31456268  0.62357804  0.94548515    -0.24480
H1096       H  0.29739792  0.66699354  0.96175993     0.14500
H1097       H  0.20407554  0.56886402  0.89915961     0.14530
C1098       C  0.18733294  0.61250109  0.90975085    -0.24430
H1099       H  0.33312546  0.64820974  0.95073305     0.04740
H1100       H  0.32010542  0.61441889  0.90913306     0.07970
H1101       H  0.31683759  0.61155880  0.98032602     0.07970
H1102       H  0.18894931  0.62997531  0.88125106     0.07950
H1103       H  0.17698428  0.61503878  0.94734959     0.07950
H1104       H  0.17035531  0.58949871  0.89204169     0.04730
C1105       C  0.35146570  0.62872178  0.58197173    -0.21080
C1106       C  0.35528679  0.60221498  0.58585370    -0.07640
C1107       C  0.38683558  0.60724848  0.59707529     0.13230
C1108       C  0.41329448  0.63722158  0.59711052    -0.21130
C1109       C  0.40961275  0.66275014  0.58463193    -0.07650
C1110       C  0.37815202  0.65880987  0.58148866     0.13210
C1111       C  0.37271576  0.68621101  0.57915536    -0.24480
H1112       H  0.32743177  0.62587239  0.57668568     0.14500
H1113       H  0.43745936  0.64011301  0.60026997     0.14530
C1114       C  0.39417541  0.58153568  0.59850216    -0.24430
H1115       H  0.34659546  0.67908868  0.57706928     0.04740
H1116       H  0.38406291  0.70022301  0.54422352     0.07970
H1117       H  0.38349797  0.70090709  0.61538855     0.07970
H1118       H  0.39178279  0.57351918  0.55678245     0.07950
H1119       H  0.37773045  0.56341375  0.62531294     0.07950
H1120       H  0.41935447  0.58906957  0.61240165     0.04730
C1121       C  0.12224352  0.90651144  0.40621056    -0.21080
C1122       C  0.15248058  0.91188324  0.42483338    -0.07640
C1123       C  0.15581622  0.88580423  0.43816427     0.13230
C1124       C  0.12825983  0.85742081  0.44660155    -0.21130
C1125       C  0.09737322  0.85312067  0.43549265    -0.07650
C1126       C  0.09490233  0.87708656  0.40890525     0.13210
C1127       C  0.06393516  0.87231777  0.38343835    -0.24480
H1128       H  0.11989687  0.92529597  0.38986630     0.14500
H1129       H  0.13093121  0.83855180  0.46224960     0.14530
C1130       C  0.18814172  0.88714580  0.44186453    -0.24430
H1131       H  0.06674936  0.89329694  0.36372016     0.04740
H1132       H  0.04596969  0.86656008  0.41400481     0.07970
H1133       H  0.05519470  0.85338461  0.35311684     0.07970
H1134       H  0.20064366  0.89864791  0.47951638     0.07950
H1135       H  0.20293178  0.89961917  0.40770002     0.07950
H1136       H  0.18553528  0.86376172  0.44054074     0.04730
C1137       C  0.39803055  0.75635138  0.42360414    -0.21080
C1138       C  0.39773483  0.72847138  0.43353412    -0.07640
C1139       C  0.36749941  0.70126668  0.43584225     0.13230
C1140       C  0.33880754  0.70343714  0.43504993    -0.21130
C1141       C  0.33958328  0.73195722  0.42948231    -0.07650
C1142       C  0.36958470  0.75833545  0.42030095     0.13210
C1143       C  0.37268728  0.78888782  0.40513046    -0.24480
H1144       H  0.42086582  0.77717301  0.41900107     0.14500
H1145       H  0.31582914  0.68288136  0.43975648     0.14530
C1146       C  0.36522130  0.66996405  0.43610427    -0.24430
H1147       H  0.38418692  0.79536248  0.36601202     0.04740
H1148       H  0.38836694  0.80693077  0.43476198     0.07970
H1149       H  0.34923251  0.78857477  0.40145474     0.07970
H1150       H  0.37775578  0.66741388  0.47141710     0.07950
H1151       H  0.37649847  0.66682138  0.40007453     0.07950
H1152       H  0.33972692  0.65122585  0.43614699     0.04730
C1153       C  0.16102384  0.78714880  0.61207011    -0.21080
C1154       C  0.15999109  0.75950050  0.59623617    -0.07640
C1155       C  0.12961665  0.73292043  0.58730140     0.13230
C1156       C  0.10196231  0.73598837  0.58389803    -0.21130
C1157       C  0.10378253  0.76488490  0.58899141    -0.07650
C1158       C  0.13323975  0.79050577  0.60681876     0.13210
C1159       C  0.13609238  0.82168068  0.61653071    -0.24480
H1160       H  0.18397878  0.80688753  0.62348359     0.14500
H1161       H  0.07895784  0.71584935  0.57396588     0.14530
C1162       C  0.12616112  0.70122483  0.58008119    -0.24430
H1163       H  0.16108958  0.83918591  0.62879792     0.04740
H1164       H  0.11980526  0.82037555  0.64860199     0.07970
H1165       H  0.12951059  0.82953927  0.57966481     0.07970
H1166       H  0.13878951  0.69665471  0.61330291     0.07950
H1167       H  0.13569818  0.69864052  0.54174848     0.07950
H1168       H  0.10055025  0.68324724  0.57973571     0.04730
C1169       C  0.00687773  0.79270201  0.78492319    -0.21080
C1170       C  0.48863779  0.76402898  0.80841082    -0.07640
C1171       C  0.47369120  0.73701133  0.77546849     0.13230
C1172       C  0.47911741  0.73923568  0.72095143    -0.21130
C1173       C  0.99875817  0.76759594  0.69791994    -0.07650
C1174       C  0.01224693  0.79483497  0.73003028     0.13210
C1175       C  0.03368600  0.82595287  0.70732010    -0.24480
H1176       H  0.01809981  0.81337203  0.80990639     0.14500
H1177       H  0.46842535  0.71848697  0.69608426     0.14530
C1178       C  0.45157669  0.70561706  0.79694048    -0.24430
H1179       H  0.04317771  0.84451170  0.73843834     0.04740
H1180       H  0.01982761  0.83145075  0.67758697     0.07970
H1181       H  0.05460874  0.82597757  0.68824462     0.07970
H1182       H  0.43224161  0.70642124  0.81988194     0.07950
H1183       H  0.46540332  0.69789269  0.82250078     0.07950
H1184       H  0.43975637  0.68793114  0.76466927     0.04730
C1185       C  0.03071604  0.75678535  0.29566202    -0.21080
C1186       C  0.50167061  0.73386961  0.31690510    -0.07640
C1187       C  0.47556304  0.71517794  0.28168352     0.13230
C1188       C  0.47939446  0.71986034  0.22686692    -0.21130
C1189       C  0.00819484  0.74315567  0.20641507    -0.07650
C1190       C  0.03416964  0.76174899  0.24109759     0.13210
C1191       C  0.06587212  0.78609830  0.22048170    -0.24480
H1192       H  0.05097505  0.77132209  0.32198569     0.14500
H1193       H  0.45974593  0.70518302  0.19955586     0.14530
C1194       C  0.44352705  0.69075230  0.30107867    -0.24430
H1195       H  0.08389223  0.79838883  0.25310347     0.04740
H1196       H  0.06212784  0.80334744  0.19850322     0.07970
H1197       H  0.07598562  0.77532418  0.19348977     0.07970
H1198       H  0.43270497  0.70143947  0.32670753     0.07950
H1199       H  0.44689430  0.67347840  0.32369044     0.07950
H1200       H  0.42609694  0.67839618  0.26774860     0.04730
C1201       C  0.34564106  0.63667872  0.09526298    -0.21080
C1202       C  0.34601959  0.60935622  0.08291086    -0.07640
C1203       C  0.37654209  0.61091355  0.07640950     0.13230
C1204       C  0.40469395  0.63986252  0.07614288    -0.21130
C1205       C  0.40368316  0.66757352  0.08089202    -0.07650
C1206       C  0.37371516  0.66551112  0.09382019     0.13210
C1207       C  0.36994494  0.69317262  0.10201628    -0.24480
H1208       H  0.32270474  0.63571158  0.10239174     0.14500
H1209       H  0.42744711  0.64092634  0.06692791     0.14530
C1210       C  0.38007033  0.58273641  0.06631708    -0.24430
H1211       H  0.34500056  0.68742082  0.11237620     0.04740
H1212       H  0.37489980  0.70470185  0.06389285     0.07970
H1213       H  0.38625053  0.70760200  0.13505019     0.07970
H1214       H  0.36792326  0.57138830  0.02807740     0.07950
H1215       H  0.36962361  0.56652940  0.09929789     0.07950
H1216       H  0.40576564  0.58854576  0.06363870     0.04730
C1217       C  0.11363970  0.85601512  0.00391556    -0.21080
C1218       C  0.09963495  0.84000845  0.95592116    -0.07640
C1219       C  0.11739276  0.85094679  0.90937698     0.13230
C1220       C  0.14765740  0.87850036  0.91198849    -0.21130
C1221       C  0.15949928  0.89603519  0.95973718    -0.07650
C1222       C  0.14142821  0.88475254  0.00590086     0.13210
C1223       C  0.15033437  0.90254429  0.05828534    -0.24480
H1224       H  0.10245601  0.84706439  0.04086655     0.14500
H1225       H  0.16101324  0.88734053  0.87614453     0.14530
C1226       C  0.10439008  0.83360448  0.85751418    -0.24430
H1227       H  0.15199882  0.88812994  0.09008284     0.04740
H1228       H  0.13131121  0.90845086  0.06855958     0.07970
H1229       H  0.17374502  0.92416353  0.05813909     0.07970
H1230       H  0.08093102  0.83233873  0.84707681     0.07950
H1231       H  0.10073431  0.80987517  0.86100608     0.07950
H1232       H  0.12123327  0.84494991  0.82487898     0.04730
C1233       C  0.36895305  0.76238004  0.06462782    -0.21080
C1234       C  0.34317424  0.75541695  0.02990333    -0.07640
C1235       C  0.34398395  0.74579618  0.97673435     0.13230
C1236       C  0.37059757  0.74304236  0.96014384    -0.21130
C1237       C  0.39651602  0.75002158  0.99502031    -0.07650
C1238       C  0.39573654  0.76021556  0.04807060     0.13210
C1239       C  0.42147909  0.76586802  0.08973355    -0.24480
H1240       H  0.36774793  0.76890129  0.10535859     0.14500
H1241       H  0.37152296  0.73635542  0.91940066     0.14530
C1242       C  0.31749068  0.73837630  0.93598289    -0.24430
H1243       H  0.41560244  0.77124044  0.12953661     0.04740
H1244       H  0.44489722  0.78470422  0.07967309     0.07970
H1245       H  0.42490993  0.74571616  0.09280426     0.07970
H1246       H  0.32720593  0.75452384  0.90273815     0.07950
H1247       H  0.29710852  0.74020817  0.95213353     0.07950
H1248       H  0.30809820  0.71455761  0.92004675     0.04730
C1249       C  0.13233208  0.74363223  0.97128934    -0.21080
C1250       C  0.15901531  0.75360555  0.00632665    -0.07640
C1251       C  0.15681044  0.76393129  0.05819049     0.13230
C1252       C  0.12903003  0.76573395  0.07190429    -0.21130
C1253       C  0.10252267  0.75614859  0.03647969    -0.07650
C1254       C  0.10423458  0.74456393  0.98533566     0.13210
C1255       C  0.07736007  0.73395039  0.94383041    -0.24480
H1256       H  0.13360770  0.73531667  0.93196828     0.14500
H1257       H  0.12769399  0.77411264  0.11114547     0.14530
C1258       C  0.18269610  0.77159522  0.10049006    -0.24430
H1259       H  0.08313503  0.72537613  0.90698787     0.04740
H1260       H  0.07341078  0.75321927  0.93239291     0.07970
H1261       H  0.05477454  0.71476230  0.95825142     0.07970
H1262       H  0.20569225  0.79165494  0.08928774     0.07950
H1263       H  0.18641980  0.75143022  0.10632362     0.07950
H1264       H  0.17602098  0.77747782  0.13919432     0.04730
C1265       C  0.34483774  0.88061565  0.59176885    -0.21080
C1266       C  0.34386476  0.85291718  0.57431308    -0.07640
C1267       C  0.37254101  0.85546879  0.55294442     0.13230
C1268       C  0.39937744  0.88466436  0.54554641    -0.21130
C1269       C  0.39991129  0.91247849  0.55976298    -0.07650
C1270       C  0.37267199  0.91008603  0.58604359     0.13210
C1271       C  0.37357554  0.93816984  0.61073901    -0.24480
H1272       H  0.32368946  0.87930526  0.60984540     0.14500
H1273       H  0.42019966  0.88553051  0.52698000     0.14530
C1274       C  0.37563627  0.82764398  0.53730422    -0.24430
H1275       H  0.35028424  0.93267243  0.62888170     0.04740
H1276       H  0.37894515  0.95583509  0.58074055     0.07970
H1277       H  0.39288555  0.94799051  0.64215202     0.07970
H1278       H  0.35924107  0.81539963  0.50294903     0.07950
H1279       H  0.36986368  0.81205905  0.57132384     0.07950
H1280       H  0.40047766  0.83397267  0.52532161     0.04730
C1281       C  0.09728902  0.61745914  0.42901320    -0.21080
C1282       C  0.09989370  0.59257184  0.44919716    -0.07640
C1283       C  0.13093415  0.59560516  0.45652268     0.13230
C1284       C  0.15845472  0.62380787  0.44682120    -0.21130
C1285       C  0.15615589  0.64969687  0.43144132    -0.07650
C1286       C  0.12498332  0.64598961  0.42015134     0.13210
C1287       C  0.11999242  0.67150147  0.39859838    -0.24480
H1288       H  0.07353001  0.61495901  0.42164113     0.14500
H1289       H  0.18195702  0.62608424  0.45476101     0.14530
C1290       C  0.13524376  0.56901811  0.47420852    -0.24430
H1291       H  0.10699736  0.67803334  0.42776805     0.04740
H1292       H  0.10529044  0.66339905  0.36114478     0.07970
H1293       H  0.14291610  0.69222484  0.38926894     0.07970
H1294       H  0.12247763  0.54941045  0.44571734     0.07950
H1295       H  0.12592778  0.56218785  0.51462765     0.07950
H1296       H  0.16087725  0.57486736  0.47511915     0.04730
C1297       C  0.36191820  0.00231614  0.39553404    -0.21080
C1298       C  0.35548543  0.01017823  0.44625183    -0.07640
C1299       C  0.37505786  0.01109126  0.49037314     0.13230
C1300       C  0.39906669  0.00378498  0.48252210    -0.21130
C1301       C  0.40602181  0.99657763  0.43319495    -0.07650
C1302       C  0.38701583  0.99510447  0.38856083     0.13210
C1303       C  0.39149653  0.98468457  0.33476544    -0.24480
H1304       H  0.34613406  0.99995266  0.36208225     0.14500
H1305       H  0.41223700  0.00295664  0.51695210     0.14530
C1306       C  0.37029824  0.01527543  0.54828425    -0.24430
H1307       H  0.36862950  0.96431626  0.32084754     0.04740
H1308       H  0.41058191  0.97791628  0.33537955     0.07970
H1309       H  0.39799051  0.50350051  0.30628315     0.07970
H1310       H  0.36225943  0.99373347  0.57002438     0.07950
H1311       H  0.35328081  0.52352391  0.55578290     0.07950
H1312       H  0.39398357  0.03137318  0.56733181     0.04730
C1313       C  0.11159893  0.50263222  0.58095927    -0.21080
C1314       C  0.09599011  0.49167304  0.53084344    -0.07640
C1315       C  0.10995979  0.47992318  0.49449807     0.13230
C1316       C  0.13551816  0.47566265  0.51157529    -0.21130
C1317       C  0.15443706  0.49119180  0.55651179    -0.07650
C1318       C  0.14187082  0.50436734  0.59276192     0.13210
C1319       C  0.15995091  0.51975404  0.64364954    -0.24480
H1320       H  0.10172459  0.51237487  0.60876242     0.14500
H1321       H  0.14327892  0.46370006  0.48555523     0.14530
C1322       C  0.10110597  0.47473238  0.43595104    -0.24430
H1323       H  0.14609341  0.02760646  0.66841271     0.04740
H1324       H  0.18339584  0.54017958  0.63525939     0.07970
H1325       H  0.16437893  0.00326592  0.66679747     0.07970
H1326       H  0.10636207  0.49674024  0.41754672     0.07950
H1327       H  0.07561965  0.95773462  0.42895475     0.07950
H1328       H  0.11557519  0.46647234  0.41424027     0.04730
C1329       C  0.03183269  0.91010749  0.48314403    -0.21080
C1330       C  0.01675482  0.91066776  0.43523200    -0.07640
C1331       C  0.49431134  0.88258684  0.41022659     0.13230
C1332       C  0.48698157  0.85474182  0.43431161    -0.21130
C1333       C  0.00202101  0.85427125  0.48279803    -0.07650
C1334       C  0.02464701  0.88265972  0.50771857     0.13210
C1335       C  0.04069949  0.88483006  0.56115792    -0.24480
H1336       H  0.04674263  0.93154288  0.50470107     0.14500
H1337       H  0.47023333  0.83329884  0.41411698     0.14530
C1338       C  0.47692511  0.88222254  0.35939866    -0.24430
H1339       H  0.05362099  0.90885602  0.57735535     0.04740
H1340       H  0.05906378  0.87724021  0.55780883     0.07970
H1341       H  0.02226717  0.87066057  0.59011073     0.07970
H1342       H  0.49481259  0.89448262  0.32852242     0.07950
H1343       H  0.46226458  0.89379549  0.36579843     0.07950
H1344       H  0.46044614  0.85836759  0.34451131     0.04730
C1345       C  0.01055569  0.64096969  0.52882550    -0.21080
C1346       C  0.48430454  0.63930013  0.49862055    -0.07640
C1347       C  0.45852945  0.60970331  0.48401356     0.13230
C1348       C  0.46029927  0.58329298  0.49847141    -0.21130
C1349       C  0.48655843  0.58511958  0.52801760    -0.07650
C1350       C  0.01179280  0.61433989  0.54387894     0.13210
C1351       C  0.03928445  0.61725712  0.57870134    -0.24480
H1352       H  0.03009919  0.66325411  0.54177089     0.14500
H1353       H  0.44122677  0.56101542  0.48559571     0.14530
C1354       C  0.42903855  0.60538428  0.45312019    -0.24430
H1355       H  0.05476986  0.64125369  0.59307414     0.04740
H1356       H  0.05423212  0.60962057  0.55648197     0.07970
H1357       H  0.02968303  0.60293418  0.61419162     0.07970
H1358       H  0.43627013  0.61744007  0.41495105     0.07950
H1359       H  0.41583789  0.61448947  0.47665498     0.07950
H1360       H  0.41197957  0.58069297  0.44391293     0.04730
C1361       C  0.48672882  0.48462940  0.70299977    -0.21080
C1362       C  0.51543011  0.00845633  0.68301908    -0.07640
C1363       C  0.04248911  0.02435730  0.71837400     0.13230
C1364       C  0.03933054  0.01720086  0.77237063    -0.21130
C1365       C  0.51005198  0.49470179  0.79270983    -0.07650
C1366       C  0.48359853  0.47754843  0.75699462     0.13210
C1367       C  0.45141546  0.45268667  0.77522182    -0.24480
H1368       H  0.46604897  0.47182897  0.67639222     0.14500
H1369       H  0.05973725  0.03015766  0.79945676     0.14530
C1370       C  0.07474354  0.04928322  0.70050894    -0.24430
H1371       H  0.43354238  0.44204752  0.74181125     0.04740
H1372       H  0.44128290  0.46254641  0.80390005     0.07970
H1373       H  0.45439193  0.93413544  0.79397362     0.07970
H1374       H  0.07226247  0.56877684  0.68469849     0.07950
H1375       H  0.08417840  0.03987439  0.66970143     0.07950
H1376       H  0.09299819  0.05862832  0.73360526     0.04730
C1377       C  0.47621679  0.50388751  0.20681326    -0.21080
C1378       C  0.97745155  0.98061193  0.17629910    -0.07640
C1379       C  0.97392921  0.95399880  0.20233180     0.13230
C1380       C  0.97132857  0.95246689  0.25775999    -0.21130
C1381       C  0.97399293  0.47739066  0.28830403    -0.07650
C1382       C  0.47554818  0.50314216  0.26230492     0.13210
C1383       C  0.47814808  0.53076231  0.29246386    -0.24480
H1384       H  0.47839520  0.52414685  0.18760541     0.14500
H1385       H  0.97009575  0.93276190  0.27771546     0.14530
C1386       C  0.97412111  0.92752209  0.17292786    -0.24430
H1387       H  0.47543565  0.54696865  0.26571844     0.04740
H1388       H  0.50217618  0.54371335  0.31269597     0.07970
H1389       H  0.45914265  0.52346355  0.32228962     0.07970
H1390       H  0.99830761  0.43487107  0.15670649     0.07950
H1391       H  0.95570907  0.91927117  0.14037522     0.07950
H1392       H  0.96846361  0.90783216  0.19906962     0.04730
C1393       C  0.38432322  0.88369262  0.93323615    -0.21080
C1394       C  0.40473467  0.88895115  0.97747903    -0.07640
C1395       C  0.39813306  0.86539361  0.01280981     0.13230
C1396       C  0.37267128  0.83610537  0.00053357    -0.21130
C1397       C  0.35069068  0.83083563  0.95794113    -0.07650
C1398       C  0.35693634  0.85521824  0.92366667     0.13210
C1399       C  0.33478460  0.85242672  0.87841013    -0.24480
H1400       H  0.39001755  0.90218554  0.90583672     0.14500
H1401       H  0.36779080  0.81813038  0.02836776     0.14530
C1402       C  0.41622914  0.87153855  0.06498441    -0.24430
H1403       H  0.34178777  0.87501321  0.86036699     0.04740
H1404       H  0.30966369  0.84313615  0.89174609     0.07970
H1405       H  0.33700846  0.83773819  0.84750258     0.07970
H1406       H  0.41072363  0.88698679  0.08951442     0.07950
H1407       H  0.44251242  0.88291474  0.05915460     0.07950
H1408       H  0.40897702  0.85007809  0.08708062     0.04730
C1409       C  0.14081874  0.64638202  0.97091236    -0.21080
C1410       C  0.14953442  0.65025487  0.02523369    -0.07640
C1411       C  0.12731828  0.63309781  0.06323314     0.13230
C1412       C  0.09685662  0.61076366  0.04565718    -0.21130
C1413       C  0.08920725  0.60445364  0.99101778    -0.07650
C1414       C  0.11079216  0.62297260  0.95306074     0.13210
C1415       C  0.10300721  0.61710354  0.89451274    -0.24480
H1416       H  0.15796854  0.66097512  0.94226108     0.14500
H1417       H  0.07955518  0.59663474  0.07465100     0.14530
C1418       C  0.13582172  0.63823559  0.12169335    -0.24430
H1419       H  0.12321480  0.63381221  0.87057440     0.04740
H1420       H  0.08130898  0.61927141  0.88461757     0.07970
H1421       H  0.09830252  0.59357985  0.88326302     0.07970
H1422       H  0.14276303  0.66230961  0.13349339     0.07950
H1423       H  0.15636807  0.63405890  0.13054328     0.07950
H1424       H  0.11521320  0.62251280  0.14597168     0.04730
C1425       C  0.39611594  0.99250030  0.98072406    -0.21080
C1426       C  0.40447358  0.98896988  0.92896554    -0.07640
C1427       C  0.38531735  0.48989908  0.88609851     0.13230
C1428       C  0.35795948  0.49336199  0.89628626    -0.21130
C1429       C  0.34989419  0.99728329  0.94822648    -0.07650
C1430       C  0.36976521  0.99721036  0.99100557     0.13210
C1431       C  0.36400806  0.00127429  0.04845052    -0.24480
H1432       H  0.41087851  0.99229292  0.01390878     0.14500
H1433       H  0.34277763  0.49309257  0.86341684     0.14530
C1434       C  0.39292420  0.48615567  0.82978498    -0.24430
H1435       H  0.36058579  0.98083440  0.07070721     0.04740
H1436       H  0.34269002  0.00414010  0.05483732     0.07970
H1437       H  0.38541318  0.02194331  0.06573450     0.07970
H1438       H  0.39216381  0.46362453  0.82446970     0.07950
H1439       H  0.41724961  0.50502401  0.82031833     0.07950
H1440       H  0.37523872  0.48684875  0.80113998     0.04730
C1441       C  0.11468044  0.51320466  0.09821026    -0.21080
C1442       C  0.10016033  0.51695096  0.05176754    -0.07640
C1443       C  0.11912376  0.02758329  0.00570088     0.13230
C1444       C  0.15109967  0.03314296  0.00710634    -0.21130
C1445       C  0.16469435  0.52716730  0.05194808    -0.07650
C1446       C  0.14643830  0.51738573  0.09831178     0.13210
C1447       C  0.16017012  0.51037268  0.14710442    -0.24480
H1448       H  0.10044476  0.50497555  0.13337452     0.14500
H1449       H  0.16478894  0.03997144  0.97114499     0.14530
C1450       C  0.10684558  0.03273729  0.95324259    -0.24430
H1451       H  0.14303566  0.50313861  0.18013088     0.04740
H1452       H  0.18278082  0.53121759  0.16044957     0.07970
H1453       H  0.16561652  0.49148092  0.13811818     0.07970
H1454       H  0.12160750  0.05722563  0.94262669     0.07950
H1455       H  0.08147741  0.02750388  0.95261779     0.07950
H1456       H  0.10909253  0.01802108  0.92194279     0.04730
C1457       C  0.05468243  0.88249205  0.01787900    -0.21080
C1458       C  0.02795602  0.85788672  0.04147437    -0.07640
C1459       C  0.49847874  0.85833835  0.03859548     0.13230
C1460       C  0.49379583  0.87609601  0.00109455    -0.21130
C1461       C  0.52016003  0.90307938  0.98416093    -0.07650
C1462       C  0.05145198  0.90662419  0.99356189     0.13210
C1463       C  0.08135151  0.93552920  0.97922759    -0.24480
H1464       H  0.07795481  0.88363460  0.02005551     0.14500
H1465       H  0.46981203  0.87346439  0.99628076     0.14530
C1466       C  0.47339397  0.84418829  0.07997937    -0.24430
H1467       H  0.09553013  0.92974586  0.95128881     0.04740
H1468       H  0.09637929  0.94667611  0.01556984     0.07970
H1469       H  0.07549931  0.95223778  0.96003562     0.07970
H1470       H  0.47982468  0.83178403  0.10986022     0.07950
H1471       H  0.44945023  0.82916907  0.06063825     0.07950
H1472       H  0.47193859  0.86282954  0.10229257     0.04730
C1473       C  0.46934640  0.62861441  0.95885106    -0.21080
C1474       C  0.49251140  0.65351804  0.98939781    -0.07640
C1475       C  0.01223235  0.64851529  0.02653068     0.13230
C1476       C  0.00853536  0.61904493  0.03138411    -0.21130
C1477       C  0.98555065  0.59393971  0.00078361    -0.07650
C1478       C  0.46529759  0.59883083  0.96418666     0.13210
C1479       C  0.43859345  0.57301845  0.93173100    -0.24480
H1480       H  0.45328244  0.63224774  0.93243105     0.14500
H1481       H  0.02448757  0.61586485  0.05875923     0.14530
C1482       C  0.03779122  0.67401582  0.06109467    -0.24430
H1483       H  0.42375558  0.58091066  0.90916128     0.04740
H1484       H  0.42230315  0.55485920  0.95850314     0.07970
H1485       H  0.44862694  0.56343709  0.90228608     0.07970
H1486       H  0.02686625  0.68388500  0.08795106     0.07950
H1487       H  0.05566873  0.69197909  0.03600591     0.07950
H1488       H  0.05122524  0.66577538  0.08659052     0.04730
O1489       O  0.50619614  0.06231407  0.03612886    -0.80910
O1490       O  0.95002159  0.42089754  0.93193920    -0.80930
O1491       O  0.95595229  0.00153050  0.89186366    -0.80940
O1492       O  0.49624433  0.47126260  0.09377871    -0.80880
O1493       O  0.93949332  0.46939275  0.95480687    -0.81000
O1494       O  0.48727490  0.01027143  0.09854837    -0.80920
O1495       O  0.95014806  0.43564650  0.01475565    -0.80910
O1496       O  0.97486500  0.04581510  0.96489711    -0.80950
C1497       C  0.48761542  0.06503030  0.00217945     1.08780
C1498       C  0.93643185  0.41576233  0.97591030     1.08670
C1499       C  0.93388843  0.98541856  0.92289648     1.08800
C1500       C  0.48609448  0.48685516  0.11942028     1.08680
O1501       O  0.55127938  0.01601128  0.08201348    -0.80910
O1502       O  0.98449698  0.47038569  0.87353207    -0.80990
O1503       O  0.54067592  0.07024066  0.94294262    -0.80920
O1504       O  0.50359745  0.43221196  0.03263005    -0.80900
O1505       O  0.01212045  0.44588917  0.94995660    -0.80950
O1506       O  0.55921312  0.05375479  0.00670119    -0.80920
O1507       O  0.54775065  0.48980381  0.01220797    -0.80880
O1508       O  0.02347351  0.01794429  0.87840190    -0.80950
Co1509     Co  0.52334610  0.03306107  0.05149587     1.51530
Co1510     Co  0.97778603  0.46192550  0.95161035     1.51690
Co1511     Co  0.99942210  0.03151554  0.92369297     1.51570
Co1512     Co  0.49971310  0.46651515  0.01495656     1.51470
O1513       O  0.50089375  0.00456288  0.98624971    -1.42840
C1514       C  0.56483236  0.50668027  0.04977509     1.08710
C1515       C  0.00667994  0.99362258  0.85131552     1.08800
C1516       C  0.56196000  0.07470852  0.97781481     1.08740
C1517       C  0.01302451  0.42885952  0.98814126     1.08710
O1518       O  0.50182584  0.00291173  0.36689014    -0.80910
O1519       O  0.96336190  0.03312724  0.55682705    -0.80930
O1520       O  0.92868280  0.46372774  0.43867127    -0.80940
O1521       O  0.56796313  0.05224207  0.50756723    -0.80880
O1522       O  0.95967917  0.01319672  0.45294998    -0.81000
O1523       O  0.54860458  0.04857416  0.42751891    -0.80920
O1524       O  0.51188486  0.05320986  0.52359865    -0.80910
O1525       O  0.96784601  0.45369032  0.37290595    -0.80950
C1526       C  0.48051798  0.97806485  0.34603182     1.08780
C1527       C  0.48768396  0.05626910  0.53878619     1.08670
C1528       C  0.93355066  0.49110184  0.43522367     1.08800
C1529       C  0.57042921  0.06353696  0.46224726     1.08680
O1530       O  0.56766323  0.00468207  0.46719174    -0.80910
O1531       O  0.93153251  0.46849649  0.53939550    -0.80990
O1532       O  0.98962110  0.43383095  0.46433521    -0.80920
O1533       O  0.54049121  0.03698664  0.60496194    -0.80900
O1534       O  0.99067019  0.49868202  0.59526859    -0.80950
O1535       O  0.52353190  0.45919780  0.40191050    -0.80920
O1536       O  0.54663092  0.99335556  0.54673494    -0.80880
O1537       O  0.95268775  0.44012667  0.52698327    -0.80950
Co1538     Co  0.53317590  0.00350391  0.41864396     1.51530
Co1539     Co  0.97573035  0.50632521  0.52132700     1.51690
Co1540     Co  0.96177787  0.45000170  0.45235820     1.51570
Co1541     Co  0.52613267  0.01971769  0.53566683     1.51470
O1542       O  0.49964498  0.99153476  0.47516853    -1.42840
C1543       C  0.56812499  0.99605833  0.51433035     1.08710
C1544       C  0.92938983  0.44216075  0.54404160     1.08800
C1545       C  0.51036071  0.43637009  0.43269211     1.08740
C1546       C  0.01571256  0.51554916  0.62560960     1.08710
O1547       O  0.93418301  0.19101326  0.00663138    -0.80910
O1548       O  0.54947710  0.32235384  0.05766842    -0.80930
O1549       O  0.50665933  0.21898056  0.12581729    -0.80940
O1550       O  0.95094632  0.27667006  0.98950809    -0.80880
O1551       O  0.51872908  0.26757818  0.12049003    -0.81000
O1552       O  0.92901410  0.23246352  0.94562857    -0.80920
O1553       O  0.50011666  0.30459599  0.04726323    -0.80910
O1554       O  0.95341306  0.21770639  0.08146837    -0.80950
C1555       C  0.93096042  0.19475939  0.05551561     1.08780
C1556       C  0.52631929  0.32787939  0.05530141     1.08670
C1557       C  0.51207076  0.24367773  0.14873191     1.08800
C1558       C  0.92678598  0.25239894  0.97524780     1.08680
O1559       O  0.98689560  0.23976352  0.88859253    -0.80910
O1560       O  0.57831158  0.28409931  0.07639848    -0.80990
O1561       O  0.48527656  0.18982792  0.03663810    -0.80920
O1562       O  0.54231453  0.31943352  0.95463257    -0.80900
O1563       O  0.56097369  0.28877880  0.97620329    -0.80950
O1564       O  0.98989428  0.19684574  0.95170913    -0.80920
O1565       O  0.98531674  0.28323066  0.89468731    -0.80880
O1566       O  0.54514166  0.23901502  0.03848049    -0.80950
Co1567     Co  0.96283480  0.21801093  0.95065204     1.51530
Co1568     Co  0.53798584  0.27679997  0.04408637     1.51690
Co1569     Co  0.49948334  0.23214737  0.05993005     1.51570
Co1570     Co  0.99459422  0.29369311  0.97276141     1.51470
O1571       O  0.49518236  0.25489542  0.99816838    -1.42840
C1572       C  0.98674621  0.26237215  0.86710441     1.08710
C1573       C  0.57416833  0.25947555  0.05308939     1.08800
C1574       C  0.98999346  0.18189705  0.99202220     1.08740
C1575       C  0.56577534  0.31387414  0.95752693     1.08710
O1576       O  0.93691867  0.20187723  0.52034331    -0.80910
O1577       O  0.52265449  0.32596217  0.52680549    -0.80930
O1578       O  0.51426834  0.24691728  0.62618964    -0.80940
O1579       O  0.95323229  0.24904894  0.41583555    -0.80880
O1580       O  0.50871605  0.28751648  0.61081956    -0.81000
O1581       O  0.93457920  0.21395709  0.47646309    -0.80920
O1582       O  0.48027476  0.30015126  0.47522243    -0.80910
O1583       O  0.96631641  0.19655296  0.58153834    -0.80950
C1584       C  0.93851141  0.18983711  0.56360769     1.08780
C1585       C  0.49988194  0.32484526  0.49872594     1.08670
C1586       C  0.50699144  0.26717223  0.64173756     1.08800
C1587       C  0.92973035  0.22987983  0.44177464     1.08680
O1588       O  0.97570460  0.21364756  0.40104127    -0.80910
O1589       O  0.56671361  0.28492719  0.59196035    -0.80990
O1590       O  0.50878309  0.19479464  0.49891388    -0.80920
O1591       O  0.54143531  0.31597239  0.43436051    -0.80900
O1592       O  0.57133043  0.31158910  0.49594090    -0.80950
O1593       O  0.95908700  0.16958676  0.47074252    -0.80920
O1594       O  0.01882276  0.25730761  0.40110473    -0.80880
O1595       O  0.55635945  0.24846585  0.53649168    -0.80950
Co1596     Co  0.97743544  0.21378482  0.48180124     1.51530
Co1597     Co  0.53826603  0.29788769  0.55208940     1.51690
Co1598     Co  0.51105909  0.22547326  0.55579375     1.51570
Co1599     Co  0.99904408  0.27775981  0.43931118     1.51470
O1600       O  0.50259014  0.25756898  0.50981534    -1.42840
C1601       C  0.99904164  0.23380113  0.37565008     1.08710
C1602       C  0.57493486  0.26686601  0.57131904     1.08800
C1603       C  0.98382176  0.16873569  0.48796102     1.08740
C1604       C  0.56881658  0.32493059  0.45535809     1.08710
O1605       O  0.72190770  0.04620642  0.04058719    -0.80910
O1606       O  0.74454236  0.44103198  0.97959251    -0.80930
O1607       O  0.67996763  0.44922484  0.96803117    -0.80940
O1608       O  0.77130181  0.99810301  0.11851736    -0.80880
O1609       O  0.71633895  0.43516199  0.95352729    -0.81000
O1610       O  0.75052577  0.02854995  0.11043027    -0.80920
O1611       O  0.78094399  0.46430811  0.04535008    -0.80910
O1612       O  0.68843675  0.49718117  0.02869794    -0.80950
C1613       C  0.69347355  0.02346065  0.04329266     1.08780
C1614       C  0.76184867  0.44039436  0.01886949     1.08670
C1615       C  0.68669576  0.42818070  0.95935806     1.08800
C1616       C  0.75731396  0.01160715  0.13821764     1.08680
O1617       O  0.78847708  0.08224123  0.06521281    -0.80910
O1618       O  0.74790759  0.46486822  0.87270808    -0.80990
O1619       O  0.72332471  0.03769300  0.94370145    -0.80920
O1620       O  0.81901122  0.01937244  0.98532264    -0.80900
O1621       O  0.79278258  0.47752086  0.93892582    -0.80950
O1622       O  0.77400587  0.05880048  0.96504314    -0.80920
O1623       O  0.81350154  0.05475515  0.06452480    -0.80880
O1624       O  0.72028240  0.48956560  0.88471732    -0.80950
Co1625     Co  0.76244918  0.04158462  0.03656655     1.51530
Co1626     Co  0.75172483  0.47974934  0.94273557     1.51690
Co1627     Co  0.70709958  0.49377518  0.96145473     1.51570
Co1628     Co  0.79163978  0.00790791  0.04912183     1.51470
O1629       O  0.74733768  0.99858800  0.00923399    -1.42840
C1630       C  0.81438129  0.08084745  0.07147709     1.08710
C1631       C  0.73339479  0.47822036  0.85353483     1.08800
C1632       C  0.75122673  0.06070211  0.94246006     1.08740
C1633       C  0.81941071  0.49859297  0.95690590     1.08710
O1634       O  0.71125407  0.02662192  0.56219358    -0.80910
O1635       O  0.75382728  0.45066137  0.52227940    -0.80930
O1636       O  0.67876317  0.46828120  0.42064623    -0.80940
O1637       O  0.75819988  0.98707265  0.59785184    -0.80880
O1638       O  0.70360839  0.44711839  0.46270453    -0.81000
O1639       O  0.76348589  0.03181345  0.61848985    -0.80920
O1640       O  0.80309365  0.47327140  0.55151426    -0.80910
O1641       O  0.69596359  0.48129024  0.52840131    -0.80950
C1642       C  0.68910272  0.99902232  0.55420873     1.08780
C1643       C  0.77858255  0.44835858  0.53476078     1.08670
C1644       C  0.67982302  0.44398069  0.43355340     1.08800
C1645       C  0.75576484  0.00462010  0.63131316     1.08680
O1646       O  0.80604544  0.07230521  0.53910988    -0.80910
O1647       O  0.74859584  0.48138334  0.38154942    -0.80990
O1648       O  0.70588960  0.03402074  0.46490863    -0.80920
O1649       O  0.82212078  0.02604399  0.48818423    -0.80900
O1650       O  0.79838326  0.48441171  0.44014411    -0.80950
O1651       O  0.75621104  0.06577002  0.48199408    -0.80920
O1652       O  0.82103310  0.04471570  0.58583932    -0.80880
O1653       O  0.73647718  0.51762966  0.39321436    -0.80950
Co1654     Co  0.75938974  0.04683954  0.54702709     1.51530
Co1655     Co  0.75192361  0.47079192  0.45583669     1.51690
Co1656     Co  0.71719897  0.49867872  0.46055717     1.51570
Co1657     Co  0.78953505  0.00574168  0.54128141     1.51470
O1658       O  0.75973752  0.01369868  0.49650257    -1.42840
C1659       C  0.82642093  0.07130927  0.57039886     1.08710
C1660       C  0.74374547  0.50202148  0.36283961     1.08800
C1661       C  0.72862220  0.06175347  0.47197841     1.08740
C1662       C  0.82398914  0.50808427  0.45557595     1.08710
O1663       O  0.68812660  0.20045684  0.02549204    -0.80910
O1664       O  0.77340293  0.31606042  0.05547324    -0.80930
O1665       O  0.73570117  0.22266604  0.11863895    -0.80940
O1666       O  0.71499284  0.26691016  0.01052756    -0.80880
O1667       O  0.77116713  0.27090441  0.11115485    -0.81000
O1668       O  0.68617406  0.23452525  0.94957666    -0.80920
O1669       O  0.76205260  0.31811917  0.97050372    -0.80910
O1670       O  0.70373720  0.16994586  0.05256156    -0.80950
C1671       C  0.68104202  0.17472371  0.04034143     1.08780
C1672       C  0.76947214  0.33058820  0.01712855     1.08670
C1673       C  0.75358064  0.24898728  0.13978887     1.08800
C1674       C  0.68800062  0.25187877  0.98784677     1.08680
O1675       O  0.72563208  0.21744734  0.88712604    -0.80910
O1676       O  0.80718887  0.27574509  0.04273430    -0.80990
O1677       O  0.76123458  0.18499109  0.00332428    -0.80920
O1678       O  0.79592399  0.29095660  0.93211818    -0.80900
O1679       O  0.80960141  0.29836305  0.01392086    -0.80950
O1680       O  0.71787975  0.17258249  0.95232029    -0.80920
O1681       O  0.73618408  0.26565421  0.89491790    -0.80880
O1682       O  0.79483299  0.23020581  0.07431835    -0.80950
Co1683     Co  0.70658374  0.20735441  0.95621397     1.51530
Co1684     Co  0.76317229  0.27372610  0.03548770     1.51690
Co1685     Co  0.74895320  0.20503482  0.05794749     1.51570
Co1686     Co  0.75486660  0.27579328  0.97160497     1.51470
O1687       O  0.74899747  0.23388511  0.99548727    -1.42840
C1688       C  0.73240325  0.24256127  0.86593861     1.08710
C1689       C  0.81396973  0.25412873  0.05149777     1.08800
C1690       C  0.74189634  0.16892457  0.96609483     1.08740
C1691       C  0.81772222  0.30585284  0.96608277     1.08710
O1692       O  0.71379327  0.18386924  0.43669478    -0.80910
O1693       O  0.74278309  0.30432034  0.51786748    -0.80930
O1694       O  0.68609939  0.24395063  0.53546223    -0.80940
O1695       O  0.78294556  0.28013707  0.39492973    -0.80880
O1696       O  0.71690974  0.27392193  0.60034849    -0.81000
O1697       O  0.73987565  0.23646940  0.39378788    -0.80920
O1698       O  0.78454569  0.32163448  0.47032710    -0.80910
O1699       O  0.68249509  0.20174889  0.46216642    -0.80950
C1700       C  0.68547303  0.18045232  0.44003337     1.08780
C1701       C  0.76302399  0.32568102  0.49169020     1.08670
C1702       C  0.68921855  0.25933182  0.57734544     1.08800
C1703       C  0.75896779  0.25940647  0.36933941     1.08680
O1704       O  0.78291226  0.21526452  0.41550276    -0.80910
O1705       O  0.76622273  0.25591716  0.61225853    -0.80990
O1706       O  0.71307836  0.17970765  0.53678225    -0.80920
O1707       O  0.80974497  0.29820042  0.54977625    -0.80900
O1708       O  0.78752589  0.31890800  0.59858376    -0.80950
O1709       O  0.76391661  0.20443360  0.51746379    -0.80920
O1710       O  0.81147139  0.25549271  0.47051365    -0.80880
O1711       O  0.71499901  0.22177441  0.61105112    -0.80950
Co1712     Co  0.75454909  0.22396272  0.45667488     1.51530
Co1713     Co  0.75676487  0.28050095  0.56098258     1.51690
Co1714     Co  0.70197995  0.21431923  0.53417324     1.51570
Co1715     Co  0.79155451  0.28459054  0.47412809     1.51470
O1716       O  0.74297401  0.24928745  0.50185195    -1.42840
C1717       C  0.80990420  0.23455617  0.43732144     1.08710
C1718       C  0.74157112  0.23683061  0.63644958     1.08800
C1719       C  0.73944126  0.17955880  0.52988312     1.08740
C1720       C  0.81273787  0.32221236  0.57536223     1.08710
C1721       C  0.71454422  0.21503404  0.77851757    -0.21080
C1722       C  0.73425523  0.24283002  0.80666454    -0.07640
C1723       C  0.75753771  0.26778642  0.77829183     0.13230
C1724       C  0.76078406  0.26451400  0.72357132    -0.21130
C1725       C  0.74095779  0.23682020  0.69552485    -0.07650
C1726       C  0.71734299  0.21169131  0.72378116     0.13210
C1727       C  0.69530532  0.18091074  0.69720564    -0.24480
H1728       H  0.69668830  0.19552598  0.79970339     0.14500
H1729       H  0.77847658  0.28408233  0.70231349     0.14530
C1730       C  0.78029130  0.29733935  0.80590345    -0.24430
H1731       H  0.68081130  0.16322110  0.72632076     0.04740
H1732       H  0.70996390  0.17272780  0.67573712     0.07970
H1733       H  0.67797886  0.18271025  0.66935372     0.07970
H1734       H  0.79450583  0.29214510  0.83511821     0.07950
H1735       H  0.76676577  0.30738312  0.82579841     0.07950
H1736       H  0.79714507  0.31451347  0.77807178     0.04730
C1737       C  0.72646543  0.23661751  0.22645419    -0.21080
C1738       C  0.75439529  0.25438701  0.19810404    -0.07640
C1739       C  0.78270462  0.27651023  0.22619068     0.13230
C1740       C  0.78259851  0.27896659  0.28173188    -0.21130
C1741       C  0.75519744  0.25993037  0.31051904    -0.07650
C1742       C  0.72632214  0.23912096  0.28200192     0.13210
C1743       C  0.69509534  0.21921438  0.30920395    -0.24480
H1744       H  0.70462262  0.22027298  0.20496497     0.14500
H1745       H  0.80470220  0.29493142  0.30299057     0.14530
C1746       C  0.81378608  0.29666405  0.19863905    -0.24430
H1747       H  0.67457186  0.20698003  0.28032385     0.04740
H1748       H  0.68920943  0.23369635  0.33568484     0.07970
H1749       H  0.69701979  0.20131488  0.33219567     0.07970
H1750       H  0.81052727  0.31252030  0.17184985     0.07950
H1751       H  0.82132997  0.28215707  0.17562216     0.07950
H1752       H  0.83376797  0.31114024  0.22724109     0.04730
C1753       C  0.79525562  0.38273916  0.48917733    -0.21080
C1754       C  0.76521092  0.35674873  0.49586663    -0.07640
C1755       C  0.74005976  0.36136218  0.51578158     0.13230
C1756       C  0.74666044  0.39095987  0.53350102    -0.21130
C1757       C  0.77676229  0.41727626  0.52656545    -0.07650
C1758       C  0.80078571  0.41259295  0.50186868     0.13210
C1759       C  0.83154952  0.43859629  0.48484861    -0.24480
H1760       H  0.81470965  0.37975563  0.47350384     0.14500
H1761       H  0.72755735  0.39372891  0.55115513     0.14530
C1762       C  0.70578122  0.33561689  0.51589532    -0.24430
H1763       H  0.84813231  0.43116086  0.46766341     0.04740
H1764       H  0.84366223  0.45323146  0.51967526     0.07970
H1765       H  0.82582796  0.45082115  0.45408117     0.07970
H1766       H  0.70393088  0.31773682  0.54266517     0.07950
H1767       H  0.69802608  0.32541268  0.47530475     0.07950
H1768       H  0.68885512  0.34353836  0.52957450     0.04730
C1769       C  0.71551148  0.09383632  0.53216723    -0.21080
C1770       C  0.72455694  0.08921043  0.48138028    -0.07640
C1771       C  0.74036422  0.11494559  0.44895634     0.13230
C1772       C  0.74677718  0.14422586  0.46769565    -0.21130
C1773       C  0.73770537  0.14906890  0.51825801    -0.07650
C1774       C  0.72137126  0.12317857  0.55053459     0.13210
C1775       C  0.71108300  0.12658531  0.60506148    -0.24480
H1776       H  0.70463754  0.07457414  0.55833904     0.14500
H1777       H  0.75776296  0.16318759  0.44137488     0.14530
C1778       C  0.75059354  0.11146533  0.39423250    -0.24430
H1779       H  0.70002154  0.10443447  0.62608932     0.04740
H1780       H  0.69292193  0.13448198  0.60221123     0.07970
H1781       H  0.73244339  0.14356056  0.62894447     0.07970
H1782       H  0.72915257  0.09466896  0.37029218     0.07950
H1783       H  0.76841730  0.10311933  0.39673564     0.07950
H1784       H  0.76191620  0.13364639  0.37330050     0.04730
C1785       C  0.73846771  0.01347679  0.71871990    -0.21080
C1786       C  0.74585241  0.99466582  0.68633620    -0.07640
C1787       C  0.74539536  0.46834980  0.70837173     0.13230
C1788       C  0.73923380  0.46274080  0.76241092    -0.21130
C1789       C  0.73386929  0.48268673  0.79544265    -0.07650
C1790       C  0.73282381  0.00813932  0.77284401     0.13210
C1791       C  0.72780705  0.03104111  0.80541813    -0.24480
H1792       H  0.73818119  0.03330298  0.70196878     0.14500
H1793       H  0.73970344  0.44306185  0.77946311     0.14530
C1794       C  0.75245413  0.44652713  0.67643606    -0.24430
H1795       H  0.72855862  0.04979574  0.78102399     0.04740
H1796       H  0.74728431  0.04191423  0.83631937     0.07970
H1797       H  0.70385690  0.01940046  0.82392908     0.07970
H1798       H  0.77716048  0.45908036  0.66072392     0.07950
H1799       H  0.73441455  0.43583995  0.64330605     0.07950
H1800       H  0.75124252  0.42754402  0.70071757     0.04730
C1801       C  0.72728871  0.48349497  0.21621082    -0.21080
C1802       C  0.75191436  0.01028186  0.19524078    -0.07080
C1803       C  0.77254777  0.03538028  0.22924990     0.13230
C1804       C  0.76842407  0.03283166  0.28413319    -0.21130
C1805       C  0.74450142  0.50564577  0.30528271    -0.07650
C1806       C  0.72320910  0.48088877  0.27109706     0.13210
C1807       C  0.69593644  0.45184699  0.29232981    -0.24480
H1808       H  0.71150197  0.46454159  0.18964615     0.14500
H1809       H  0.78468518  0.05156104  0.31067885     0.14530
C1810       C  0.79972215  0.06438519  0.20779517    -0.24430
H1811       H  0.68127021  0.43528175  0.25993021     0.04740
H1812       H  0.67972077  0.45761012  0.31512386     0.07970
H1813       H  0.70553376  0.44020051  0.31837594     0.07970
H1814       H  0.78978308  0.07535577  0.18085246     0.07950
H1815       H  0.81632311  0.05879486  0.18569083     0.07950
H1816       H  0.81398871  0.08135012  0.23996135     0.04730
C1817       C  0.73981499  0.35754307  0.03702452    -0.21080
C1818       C  0.76953936  0.35932758  0.02750542    -0.07640
C1819       C  0.79761087  0.38805868  0.02553612     0.13230
C1820       C  0.79448344  0.41456592  0.02488813    -0.21130
C1821       C  0.76405830  0.41255172  0.02902368    -0.07650
C1822       C  0.73719172  0.38418070  0.04036418     0.13210
C1823       C  0.70627707  0.38209018  0.05694183    -0.24480
H1824       H  0.71852533  0.33528932  0.04089932     0.14500
H1825       H  0.81555036  0.43667680  0.01887011     0.14530
C1826       C  0.83032526  0.39055713  0.02231476    -0.24430
H1827       H  0.68756530  0.35810434  0.06503099     0.04740
H1828       H  0.69764810  0.39054155  0.02435217     0.07970
H1829       H  0.71049532  0.39666517  0.09312201     0.07970
H1830       H  0.83491241  0.37968047  0.05718281     0.07950
H1831       H  0.83088376  0.37850311  0.98577377     0.07950
H1832       H  0.84986192  0.41489264  0.02117662     0.04730
C1833       C  0.77689285  0.14551676  0.94801306    -0.21080
C1834       C  0.74631336  0.14358726  0.94247714    -0.07640
C1835       C  0.72039748  0.11610186  0.92058212     0.13230
C1836       C  0.72472997  0.09038438  0.91242468    -0.21130
C1837       C  0.75371150  0.09079003  0.92761218    -0.07650
C1838       C  0.78107356  0.11963208  0.94009680     0.13210
C1839       C  0.81457729  0.12357441  0.94547188    -0.24480
H1840       H  0.79741533  0.16699192  0.96175174     0.14500
H1841       H  0.70409689  0.06887229  0.89910295     0.14530
C1842       C  0.68735828  0.11251185  0.90968875    -0.24430
H1843       H  0.83314134  0.14820533  0.95072508     0.04740
H1844       H  0.82012203  0.11441645  0.90912037     0.07970
H1845       H  0.81684824  0.11155249  0.98031190     0.07970
H1846       H  0.68898174  0.12999198  0.88119621     0.07950
H1847       H  0.67700274  0.11504260  0.94728429     0.07950
H1848       H  0.67038260  0.08951251  0.89196606     0.04730
C1849       C  0.85145964  0.12872137  0.58198892    -0.21080
C1850       C  0.85528040  0.10221438  0.58587198    -0.07640
C1851       C  0.88682984  0.10724799  0.59708730     0.13230
C1852       C  0.91328891  0.13722100  0.59711879    -0.21130
C1853       C  0.90960696  0.16274961  0.58464149    -0.07650
C1854       C  0.87814613  0.15880934  0.58150080     0.13210
C1855       C  0.87270990  0.18621044  0.57916500    -0.24480
H1856       H  0.82742559  0.12587209  0.57670587     0.14500
H1857       H  0.93745383  0.14011230  0.60027505     0.14530
C1858       C  0.89416920  0.08153490  0.59851250    -0.24430
H1859       H  0.84658960  0.17908820  0.57708167     0.04740
H1860       H  0.88405540  0.20022057  0.54423058     0.07970
H1861       H  0.88349385  0.20090829  0.61539584     0.07970
H1862       H  0.89177174  0.07351585  0.55679345     0.07950
H1863       H  0.87772694  0.06341475  0.62532851     0.07950
H1864       H  0.91934958  0.08906899  0.61240458     0.04730
C1865       C  0.62223939  0.40651351  0.40620939    -0.21080
C1866       C  0.65247693  0.41188470  0.42482823    -0.07640
C1867       C  0.65581196  0.38580511  0.43815674     0.13230
C1868       C  0.62825541  0.35742254  0.44659941    -0.21130
C1869       C  0.59736867  0.35312323  0.43549477    -0.07650
C1870       C  0.59489783  0.37708900  0.40890673     0.13210
C1871       C  0.56393058  0.37232017  0.38344044    -0.24480
H1872       H  0.61989288  0.42529788  0.38986431     0.14500
H1873       H  0.63092685  0.33855328  0.46224606     0.14530
C1874       C  0.68813680  0.38714480  0.44184427    -0.24430
H1875       H  0.56674467  0.39329916  0.36372171     0.04740
H1876       H  0.54596563  0.36656288  0.41400747     0.07970
H1877       H  0.55518967  0.35338664  0.35311959     0.07970
H1878       H  0.70064394  0.39864762  0.47949237     0.07950
H1879       H  0.70292277  0.39961680  0.40767526     0.07950
H1880       H  0.68552868  0.36376014  0.44051795     0.04730
C1881       C  0.89802646  0.25635032  0.42360726    -0.21080
C1882       C  0.89773137  0.22847082  0.43353951    -0.07640
C1883       C  0.86749628  0.20126572  0.43584709     0.13230
C1884       C  0.83880399  0.20343541  0.43505282    -0.21130
C1885       C  0.83957904  0.23195508  0.42948362    -0.07650
C1886       C  0.86958018  0.25833355  0.42030188     0.13210
C1887       C  0.87268201  0.28888522  0.40512855    -0.24480
H1888       H  0.92086152  0.27717221  0.41900426     0.14500
H1889       H  0.81582583  0.18287937  0.43975921     0.14530
C1890       C  0.86521899  0.16996343  0.43611063    -0.24430
H1891       H  0.88418172  0.29535912  0.36601007     0.04740
H1892       H  0.88836134  0.30692900  0.43475910     0.07970
H1893       H  0.84922697  0.28857154  0.40145158     0.07970
H1894       H  0.87775269  0.16741361  0.47142489     0.07950
H1895       H  0.87649735  0.16682102  0.40008219     0.07950
H1896       H  0.83972476  0.15122484  0.43615182     0.04730
C1897       C  0.66102141  0.28715309  0.61205564    -0.21080
C1898       C  0.65998712  0.25950362  0.59622510    -0.07640
C1899       C  0.62961221  0.23292315  0.58729840     0.13230
C1900       C  0.60195771  0.23599093  0.58389998    -0.21130
C1901       C  0.60377852  0.26488782  0.58899014    -0.07650
C1902       C  0.63323705  0.29050980  0.60680919     0.13210
C1903       C  0.63609041  0.32168534  0.61651679    -0.24480
H1904       H  0.68397732  0.30689255  0.62346229     0.14500
H1905       H  0.57895248  0.21585145  0.57397355     0.14530
C1906       C  0.62615641  0.20122735  0.58008153    -0.24430
H1907       H  0.66108855  0.33919136  0.62877754     0.04740
H1908       H  0.61980605  0.32038253  0.64859118     0.07970
H1909       H  0.62950543  0.32954128  0.57965090     0.07970
H1910       H  0.63878972  0.19666014  0.61329927     0.07950
H1911       H  0.63568831  0.19864046  0.54174514     0.07950
H1912       H  0.60054580  0.18324973  0.57974701     0.04730
C1913       C  0.50688050  0.29270902  0.78492754    -0.21080
C1914       C  0.98865384  0.26404186  0.80842981    -0.07640
C1915       C  0.97369956  0.23702344  0.77548981     0.13230
C1916       C  0.97911972  0.23924520  0.72097088    -0.21130
C1917       C  0.49875679  0.26760009  0.69792545    -0.07650
C1918       C  0.51224838  0.29484003  0.73003403     0.13210
C1919       C  0.53368928  0.32595674  0.70732134    -0.24480
H1920       H  0.51810476  0.31337951  0.80990941     0.14500
H1921       H  0.96842260  0.21849567  0.69610567     0.14530
C1922       C  0.95158302  0.20563099  0.79696643    -0.24430
H1923       H  0.54318335  0.34451633  0.73843832     0.04740
H1924       H  0.51983157  0.33145563  0.67758849     0.07970
H1925       H  0.55461044  0.32597876  0.68824490     0.07970
H1926       H  0.93225278  0.20643975  0.81991512     0.07950
H1927       H  0.96540938  0.19790366  0.82252086     0.07950
H1928       H  0.93975639  0.18794480  0.76469739     0.04730
C1929       C  0.53072058  0.25678954  0.29566746    -0.21080
C1930       C  0.00167172  0.23386721  0.31692194    -0.07640
C1931       C  0.97556625  0.21517254  0.28169903     0.13230
C1932       C  0.97939982  0.21985269  0.22688242    -0.21130
C1933       C  0.50820428  0.24315866  0.20641738    -0.07650
C1934       C  0.53417701  0.26175284  0.24110297     0.13210
C1935       C  0.56588018  0.28610289  0.22049055    -0.24480
H1936       H  0.55097794  0.27132710  0.32199344     0.14500
H1937       H  0.95975281  0.20517362  0.19957032     0.14530
C1938       C  0.94353008  0.19074637  0.30109258    -0.24430
H1939       H  0.58389855  0.29839382  0.25311438     0.04740
H1940       H  0.56213623  0.30335161  0.19851002     0.07970
H1941       H  0.57599564  0.27532940  0.19350128     0.07970
H1942       H  0.93270551  0.20143348  0.32671596     0.07950
H1943       H  0.94689782  0.17347440  0.32370963     0.07950
H1944       H  0.92610181  0.17838799  0.26776144     0.04730
C1945       C  0.84565687  0.13667584  0.09529467    -0.21080
C1946       C  0.84602869  0.10935375  0.08290763    -0.07640
C1947       C  0.87654706  0.11090858  0.07636910     0.13230
C1948       C  0.90470038  0.13985586  0.07610342    -0.21130
C1949       C  0.90369488  0.16756815  0.08088855    -0.07650
C1950       C  0.87373279  0.16550743  0.09385437     0.13210
C1951       C  0.86996940  0.19317009  0.10209390    -0.24480
H1952       H  0.82272371  0.13570952  0.10245120     0.14500
H1953       H  0.92744964  0.14091848  0.06686214     0.14530
C1954       C  0.88006811  0.08273124  0.06623243    -0.24430
H1955       H  0.84503101  0.18741846  0.11249435     0.04740
H1956       H  0.87490579  0.20470399  0.06397549     0.07970
H1957       H  0.88629134  0.20759570  0.13511566     0.07970
H1958       H  0.86790664  0.07139115  0.02799652     0.07950
H1959       H  0.86963194  0.06651839  0.09920808     0.07950
H1960       H  0.90576124  0.08853833  0.06352096     0.04730
C1961       C  0.61364764  0.35601466  0.00390204    -0.21080
C1962       C  0.59963711  0.34001231  0.95590699    -0.07640
C1963       C  0.61738384  0.35095930  0.90935479     0.13230
C1964       C  0.64764617  0.37851478  0.91196203    -0.21130
C1965       C  0.65949444  0.39604377  0.95971484    -0.07650
C1966       C  0.64143183  0.38475507  0.00588476     0.13210
C1967       C  0.65034356  0.40254292  0.05827322    -0.24480
H1968       H  0.60247064  0.34705797  0.04085551     0.14500
H1969       H  0.66099506  0.38736073  0.87611361     0.14530
C1970       C  0.60437203  0.33362399  0.85748841    -0.24430
H1971       H  0.65201318  0.38812703  0.09006276     0.04740
H1972       H  0.63132039  0.40844673  0.06856176     0.07970
H1973       H  0.67375305  0.42416331  0.05812384     0.07970
H1974       H  0.58090948  0.33235653  0.84707368     0.07950
H1975       H  0.60072052  0.30989524  0.86096125     0.07950
H1976       H  0.62120744  0.34497602  0.82484675     0.04730
C1977       C  0.86895955  0.26237321  0.06463419    -0.21080
C1978       C  0.84318245  0.25541197  0.02990662    -0.07640
C1979       C  0.84399458  0.24579272  0.97673758     0.13230
C1980       C  0.87060930  0.24304012  0.96014938    -0.21130
C1981       C  0.89652632  0.25001833  0.99502844    -0.07650
C1982       C  0.89574399  0.26020960  0.04807908     0.13210
C1983       C  0.92148547  0.26586180  0.08974355    -0.24480
H1984       H  0.86775269  0.26889299  0.10536517     0.14500
H1985       H  0.87153688  0.23635535  0.91940570     0.14530
C1986       C  0.81750279  0.23837315  0.93598344    -0.24430
H1987       H  0.91560770  0.27123315  0.12954653     0.04740
H1988       H  0.94490353  0.28469785  0.07968430     0.07970
H1989       H  0.92491754  0.24571088  0.09281281     0.07970
H1990       H  0.82721869  0.25452257  0.90274143     0.07950
H1991       H  0.79711861  0.24020203  0.95213290     0.07950
H1992       H  0.80811288  0.21455556  0.92004365     0.04730
C1993       C  0.63234013  0.24363195  0.97129064    -0.21080
C1994       C  0.65902280  0.25360325  0.00632860    -0.07640
C1995       C  0.65681982  0.26393262  0.05819041     0.13230
C1996       C  0.62904041  0.26573755  0.07190329    -0.21130
C1997       C  0.60253316  0.25615322  0.03647839    -0.07650
C1998       C  0.60424485  0.24456859  0.98533432     0.13210
C1999       C  0.57737336  0.23396214  0.94382496    -0.24480
H2000       H  0.63361505  0.23531537  0.93197009     0.14500
H2001       H  0.62770524  0.27411766  0.11114371     0.14530
C2002       C  0.68270680  0.27159882  0.10048849    -0.24430
H2003       H  0.58314676  0.22538525  0.90698392     0.04740
H2004       H  0.57343286  0.25323599  0.93238595     0.07970
H2005       H  0.55478344  0.21477808  0.95824189     0.07970
H2006       H  0.70570280  0.29165727  0.08928156     0.07950
H2007       H  0.68643002  0.25143386  0.10632644     0.07950
H2008       H  0.67603344  0.27748467  0.13919152     0.04730
C2009       C  0.84483382  0.38061603  0.59176816    -0.21080
C2010       C  0.84386029  0.35291787  0.57430895    -0.07640
C2011       C  0.87253727  0.35546945  0.55294331     0.13230
C2012       C  0.89937549  0.38466497  0.54555282    -0.21130
C2013       C  0.89991019  0.41247894  0.55977344    -0.07650
C2014       C  0.87266950  0.41008617  0.58604983     0.13210
C2015       C  0.87357266  0.43816932  0.61074746    -0.24480
H2016       H  0.82368481  0.37930561  0.60984193     0.14500
H2017       H  0.92019847  0.38553135  0.52698887     0.14530
C2018       C  0.87563132  0.32764471  0.53729784    -0.24430
H2019       H  0.85028045  0.43267168  0.62888695     0.04740
H2020       H  0.87894440  0.45583600  0.58075090     0.07970
H2021       H  0.89288095  0.44798817  0.64216341     0.07970
H2022       H  0.85923707  0.31540321  0.50294017     0.07950
H2023       H  0.86985661  0.31205733  0.57131424     0.07950
H2024       H  0.90047289  0.33397304  0.52531679     0.04730
C2025       C  0.59728550  0.11745512  0.42898745    -0.21080
C2026       C  0.59989011  0.09256645  0.44916455    -0.07640
C2027       C  0.63093051  0.09559959  0.45648960     0.13230
C2028       C  0.65845117  0.12380377  0.44679660    -0.21130
C2029       C  0.65615214  0.14969399  0.43142526    -0.07650
C2030       C  0.62497981  0.14598681  0.42013316     0.13210
C2031       C  0.61998918  0.17150004  0.39858614    -0.24480
H2032       H  0.57352652  0.11495515  0.42161576     0.14500
H2033       H  0.68195345  0.12608008  0.45473737     0.14530
C2034       C  0.63523985  0.06901104  0.47416736    -0.24430
H2035       H  0.60699254  0.17802921  0.42775706     0.04740
H2036       H  0.60528881  0.16340029  0.36113067     0.07970
H2037       H  0.64291306  0.19222450  0.38926150     0.07970
H2038       H  0.62247366  0.04940543  0.44567214     0.07950
H2039       H  0.62592329  0.06217759  0.51458532     0.07950
H2040       H  0.66087345  0.07486025  0.47507718     0.04730
C2041       C  0.86192594  0.50232088  0.39554309    -0.21080
C2042       C  0.85548762  0.51017846  0.44626010    -0.07640
C2043       C  0.87505628  0.51108925  0.49038576     0.13230
C2044       C  0.89906681  0.50378478  0.48253932    -0.21130
C2045       C  0.90602734  0.49658210  0.43321283    -0.07650
C2046       C  0.88702600  0.49511221  0.38857435     0.13210
C2047       C  0.89151523  0.48470010  0.33477788    -0.24480
H2048       H  0.84614523  0.49995987  0.36208758     0.14500
H2049       H  0.91223543  0.50295598  0.51697174     0.14530
C2050       C  0.87029177  0.51527050  0.54829590    -0.24430
H2051       H  0.86865128  0.46433158  0.32085000     0.04740
H2052       H  0.91060326  0.47793531  0.33539452     0.07970
H2053       H  0.89798808  0.00351118  0.30630001     0.07970
H2054       H  0.86225135  0.49372759  0.57003365     0.07950
H2055       H  0.85327550  0.02351977  0.55580715     0.07950
H2056       H  0.89397542  0.53136759  0.56734922     0.04730
C2057       C  0.61158812  0.00262644  0.58094563    -0.21080
C2058       C  0.59598283  0.99166826  0.53082727    -0.07640
C2059       C  0.60995435  0.97991830  0.49448564     0.13230
C2060       C  0.63551179  0.97565804  0.51156837    -0.21130
C2061       C  0.65442774  0.99118641  0.55650757    -0.07650
C2062       C  0.64185901  0.00436118  0.59275462     0.13210
C2063       C  0.65993560  0.01974681  0.64364522    -0.24480
H2064       H  0.60171177  0.01236870  0.60874648     0.14500
H2065       H  0.64327522  0.96369524  0.48554839     0.14530
C2066       C  0.60110283  0.97472681  0.43593788    -0.24430
H2067       H  0.64610099  0.52761342  0.66840802     0.04740
H2068       H  0.68338105  0.04017277  0.63525916     0.07970
H2069       H  0.66438545  0.50327195  0.66679452     0.07970
H2070       H  0.60635936  0.99673425  0.41753176     0.07950
H2071       H  0.57562328  0.45773681  0.42895338     0.07950
H2072       H  0.61557348  0.96646710  0.41423045     0.04730
C2073       C  0.53183575  0.41010820  0.48314339    -0.21080
C2074       C  0.51675846  0.41066932  0.43523136    -0.07640
C2075       C  0.99431329  0.38259354  0.41023925     0.13230
C2076       C  0.98698120  0.35474746  0.43432263    -0.21130
C2077       C  0.50201689  0.35427222  0.48280207    -0.07650
C2078       C  0.52464535  0.38266024  0.50772124     0.13210
C2079       C  0.54069568  0.38483011  0.56116256    -0.24480
H2080       H  0.54674814  0.43154358  0.50469890     0.14500
H2081       H  0.97023156  0.33330523  0.41412735     0.14530
C2082       C  0.97692755  0.38223157  0.35941220    -0.24430
H2083       H  0.55361812  0.40885621  0.57735925     0.04740
H2084       H  0.55905886  0.37723865  0.55781698     0.07970
H2085       H  0.52226192  0.37066191  0.59011437     0.07970
H2086       H  0.99481525  0.39449135  0.32853610     0.07950
H2087       H  0.96226863  0.39380599  0.36581371     0.07950
H2088       H  0.96044713  0.35837722  0.34452368     0.04730
C2089       C  0.51055374  0.14096941  0.52881062    -0.21080
C2090       C  0.98430244  0.13930098  0.49863041    -0.07640
C2091       C  0.95852798  0.10970418  0.48402140     0.13230
C2092       C  0.96029859  0.08329380  0.49847650    -0.21130
C2093       C  0.98655790  0.08512024  0.52802217    -0.07650
C2094       C  0.51179116  0.11433866  0.54385618     0.13210
C2095       C  0.53928222  0.11725348  0.57867736    -0.24480
H2096       H  0.53009655  0.16325302  0.54176131     0.14500
H2097       H  0.94122648  0.06101633  0.48559933     0.14530
C2098       C  0.92903683  0.10538525  0.45312900    -0.24430
H2099       H  0.55476764  0.14124913  0.59305430     0.04740
H2100       H  0.55423005  0.10961821  0.55645529     0.07970
H2101       H  0.52968022  0.10292822  0.61416498     0.07970
H2102       H  0.93626819  0.11744224  0.41496089     0.07950
H2103       H  0.91583568  0.11448925  0.47666543     0.07950
H2104       H  0.91197840  0.08069405  0.44391981     0.04730
C2105       C  0.98672402  0.98462881  0.70299993    -0.21080
C2106       C  0.01542758  0.50844644  0.68304524    -0.07640
C2107       C  0.54249237  0.52436170  0.71837250     0.13230
C2108       C  0.53933525  0.51720534  0.77236925    -0.21130
C2109       C  0.01004562  0.99469966  0.79271055    -0.07650
C2110       C  0.98359213  0.97754822  0.75699487     0.13210
C2111       C  0.95140743  0.95268952  0.77522207    -0.24480
H2112       H  0.96604404  0.97182992  0.67639193     0.14500
H2113       H  0.55974190  0.53016357  0.79945477     0.14530
C2114       C  0.57474549  0.54928956  0.70050668    -0.24430
H2115       H  0.93353427  0.94205163  0.74181129     0.04740
H2116       H  0.94127705  0.96255196  0.80389920     0.07970
H2117       H  0.95437875  0.43412357  0.79398969     0.07970
H2118       H  0.57225549  0.06879250  0.68466092     0.07950
H2119       H  0.58418180  0.53988201  0.66969933     0.07950
H2120       H  0.59300029  0.55863635  0.73360266     0.04730
C2121       C  0.97622171  0.00389329  0.20681492    -0.21080
C2122       C  0.47744725  0.48060623  0.17629799    -0.07640
C2123       C  0.47392970  0.45399530  0.20233261     0.13230
C2124       C  0.47133173  0.45246505  0.25776119    -0.21130
C2125       C  0.47399085  0.97737735  0.28827647    -0.07650
C2126       C  0.97554925  0.00314571  0.26230619     0.13210
C2127       C  0.97814867  0.03076534  0.29246626    -0.24480
H2128       H  0.97840315  0.02415406  0.18760818     0.14500
H2129       H  0.47010188  0.43276156  0.27771773     0.14530
C2130       C  0.47412466  0.42751953  0.17293061    -0.24430
H2131       H  0.97543886  0.04697318  0.26572097     0.04740
H2132       H  0.00217561  0.04371498  0.31270251     0.07970
H2133       H  0.95914125  0.02346609  0.32228851     0.07970
H2134       H  0.49835534  0.93489112  0.15669301     0.07950
H2135       H  0.45571122  0.41926531  0.14038024     0.07950
H2136       H  0.46847111  0.40783124  0.19907429     0.04730
C2137       C  0.88431458  0.38368287  0.93324521    -0.21080
C2138       C  0.90472018  0.38894254  0.97749713    -0.07640
C2139       C  0.89812419  0.36538129  0.01281663     0.13230
C2140       C  0.87267269  0.33609054  0.00052324    -0.21130
C2141       C  0.85069407  0.33082052  0.95792750    -0.07650
C2142       C  0.85693729  0.35520414  0.92365779     0.13210
C2143       C  0.83479319  0.35240744  0.87838526    -0.24480
H2144       H  0.89000730  0.40217792  0.90585119     0.14500
H2145       H  0.86779508  0.31811317  0.02835035     0.14530
C2146       C  0.91621394  0.37152368  0.06499778    -0.24430
H2147       H  0.84179886  0.37499172  0.86033144     0.04740
H2148       H  0.80967034  0.34311864  0.89171039     0.07970
H2149       H  0.83702068  0.33771460  0.84748840     0.07970
H2150       H  0.91069690  0.38696249  0.08953161     0.07950
H2151       H  0.94249895  0.38290849  0.05918086     0.07950
H2152       H  0.90896557  0.35006085  0.08708463     0.04730
C2153       C  0.64084697  0.14635534  0.97088687    -0.21080
C2154       C  0.64954490  0.15024844  0.02521586    -0.07640
C2155       C  0.62730353  0.13313502  0.06321481     0.13230
C2156       C  0.59683473  0.11081793  0.04563436    -0.21130
C2157       C  0.58920282  0.10447942  0.99099607    -0.07650
C2158       C  0.61081349  0.12295877  0.95303451     0.13210
C2159       C  0.60304620  0.11705920  0.89448577    -0.24480
H2160       H  0.65801303  0.16092302  0.94223311     0.14500
H2161       H  0.57951412  0.09671760  0.07462804     0.14530
C2162       C  0.63578866  0.13829958  0.12167945    -0.24430
H2163       H  0.62327169  0.13373930  0.87054443     0.04740
H2164       H  0.58136599  0.11924652  0.88453467     0.07970
H2165       H  0.59831879  0.09352096  0.88329453     0.07970
H2166       H  0.64275652  0.16238710  0.13342640     0.07950
H2167       H  0.65631252  0.13409811  0.13058653     0.07950
H2168       H  0.61516247  0.12260849  0.14595670     0.04730
C2169       C  0.89610731  0.49249815  0.98072836    -0.21080
C2170       C  0.90446797  0.48896831  0.92897168    -0.07640
C2171       C  0.88530318  0.98988996  0.88610748     0.13230
C2172       C  0.85794175  0.99334759  0.89629534    -0.21130
C2173       C  0.84988998  0.49728624  0.94822219    -0.07650
C2174       C  0.86975746  0.49721052  0.99100485     0.13210
C2175       C  0.86399676  0.50127264  0.04844880    -0.24480
H2176       H  0.91086675  0.49228826  0.01391581     0.14500
H2177       H  0.84275629  0.99307165  0.86342626     0.14530
C2178       C  0.89290727  0.98614121  0.82979486    -0.24430
H2179       H  0.86057053  0.48083094  0.07070376     0.04740
H2180       H  0.84267980  0.50414062  0.05483235     0.07970
H2181       H  0.88540196  0.52193972  0.06573755     0.07970
H2182       H  0.89215130  0.96361156  0.82448804     0.07950
H2183       H  0.91723032  0.00501101  0.82032072     0.07950
H2184       H  0.87521771  0.98682714  0.80114999     0.04730
C2185       C  0.61468117  0.01321132  0.09820566    -0.21080
C2186       C  0.60017309  0.01697934  0.05176861    -0.07640
C2187       C  0.61912032  0.52758714  0.00570903     0.13230
C2188       C  0.65109614  0.53314698  0.00711299    -0.21130
C2189       C  0.66470935  0.02720165  0.05196866    -0.07650
C2190       C  0.64643970  0.01739458  0.09831525     0.13210
C2191       C  0.66015824  0.01035711  0.14709758    -0.24480
H2192       H  0.60043528  0.00496233  0.13335549     0.14500
H2193       H  0.66478472  0.53997525  0.97115095     0.14530
C2194       C  0.60684137  0.53274048  0.95325082    -0.24430
H2195       H  0.64301447  0.00310594  0.18011161     0.04740
H2196       H  0.68276551  0.03119608  0.16047445     0.07970
H2197       H  0.66560715  0.99146978  0.13808496     0.07970
H2198       H  0.62160248  0.55722886  0.94263476     0.07950
H2199       H  0.58147300  0.52750631  0.95262587     0.07950
H2200       H  0.60908876  0.51802456  0.92195097     0.04730
C2201       C  0.55469374  0.38249713  0.01788109    -0.21080
C2202       C  0.52796807  0.35789199  0.04147841    -0.07640
C2203       C  0.99847093  0.35832816  0.03865172     0.13230
C2204       C  0.99378363  0.37608171  0.00114788    -0.21130
C2205       C  0.02014432  0.40306702  0.98421253    -0.07650
C2206       C  0.55146199  0.40662839  0.99356320     0.13210
C2207       C  0.58136064  0.43553382  0.97922756    -0.24480
H2208       H  0.57796641  0.38364016  0.02005688     0.14500
H2209       H  0.96979778  0.37344459  0.99633078     0.14530
C2210       C  0.97338825  0.34417909  0.08003880    -0.24430
H2211       H  0.59553946  0.42975084  0.95128862     0.04740
H2212       H  0.59638866  0.44668152  0.01556924     0.07970
H2213       H  0.57550728  0.45224157  0.96003533     0.07970
H2214       H  0.97981986  0.33177424  0.10991742     0.07950
H2215       H  0.94944349  0.32916070  0.06070051     0.07950
H2216       H  0.97193309  0.36282098  0.10235089     0.04730
C2217       C  0.96936347  0.12862345  0.95884896    -0.21080
C2218       C  0.99252673  0.15352483  0.98940193    -0.07640
C2219       C  0.51223738  0.14851827  0.02651672     0.13230
C2220       C  0.50853572  0.11904642  0.03137308    -0.21130
C2221       C  0.48554345  0.09394038  0.00078272    -0.07650
C2222       C  0.96531157  0.09883883  0.96418382     0.13210
C2223       C  0.93861005  0.07302889  0.93171949    -0.24480
H2224       H  0.95330287  0.13225928  0.93242506     0.14500
H2225       H  0.52449073  0.11586587  0.05874115     0.14530
C2226       C  0.53780346  0.17401955  0.06107025    -0.24430
H2227       H  0.92377635  0.08092380  0.90914443     0.04740
H2228       H  0.92231491  0.05486804  0.95848528     0.07970
H2229       H  0.94864644  0.06344832  0.90227827     0.07970
H2230       H  0.52688514  0.18389416  0.08792958     0.07950
H2231       H  0.55567907  0.19197902  0.03597365     0.07950
H2232       H  0.55123825  0.16577824  0.08656229     0.04730
O2233       O  0.50621027  0.56231790  0.03612184    -0.80910
O2234       O  0.95001043  0.92089841  0.93194983    -0.80930
O2235       O  0.95596090  0.50152922  0.89185846    -0.80940
O2236       O  0.49626032  0.97126468  0.09375574    -0.80880
O2237       O  0.93948958  0.96939755  0.95481712    -0.81000
O2238       O  0.48728969  0.51028923  0.09857650    -0.80920
O2239       O  0.95014829  0.93565372  0.01476692    -0.80910
O2240       O  0.97486784  0.54581466  0.96488828    -0.80950
C2241       C  0.48762101  0.56502936  0.00218239     1.08780
C2242       C  0.93642561  0.91576834  0.97592539     1.08670
C2243       C  0.93389564  0.48541722  0.92288879     1.08800
C2244       C  0.48609509  0.98684485  0.11939516     1.08680
O2245       O  0.55127718  0.51600173  0.08202550    -0.80910
O2246       O  0.98448784  0.97038544  0.87353317    -0.80990
O2247       O  0.54067356  0.57023117  0.94294908    -0.80920
O2248       O  0.50362436  0.93222741  0.03259851    -0.80900
O2249       O  0.01211226  0.94588768  0.94995337    -0.80950
O2250       O  0.55920727  0.55372162  0.00666586    -0.80920
O2251       O  0.54776964  0.98982449  0.01218677    -0.80880
O2252       O  0.02348236  0.51794416  0.87840655    -0.80950
Co2253     Co  0.52335218  0.53305760  0.05149783     1.51530
Co2254     Co  0.97778013  0.96192702  0.95161344     1.51690
Co2255     Co  0.99942790  0.53151496  0.92369233     1.51570
Co2256     Co  0.49973246  0.96652714  0.01493171     1.51470
O2257       O  0.50088062  0.50455216  0.98626882    -1.42840
C2258       C  0.56484366  0.00669973  0.04976209     1.08710
C2259       C  0.00668899  0.49362366  0.85131680     1.08800
C2260       C  0.56196036  0.57468719  0.97780762     1.08740
C2261       C  0.01301931  0.92885943  0.98813815     1.08710
O2262       O  0.50182871  0.50292051  0.36691790    -0.80910
O2263       O  0.96336256  0.53312781  0.55682249    -0.80930
O2264       O  0.92867855  0.96372869  0.43867497    -0.80940
O2265       O  0.56796622  0.55224568  0.50759799    -0.80880
O2266       O  0.95968234  0.51319610  0.45294612    -0.81000
O2267       O  0.54860715  0.54858057  0.42755071    -0.80920
O2268       O  0.51188694  0.55321032  0.52363408    -0.80910
O2269       O  0.96783974  0.95369005  0.37290361    -0.80950
C2270       C  0.48052165  0.47807440  0.34605629     1.08780
C2271       C  0.48768466  0.55626843  0.53881800     1.08670
C2272       C  0.93354644  0.99110295  0.43523033     1.08800
C2273       C  0.57043234  0.56354201  0.46227903     1.08680
O2274       O  0.56766757  0.50468792  0.46721192    -0.80910
O2275       O  0.93153120  0.96849601  0.53939892    -0.80990
O2276       O  0.98961442  0.93382759  0.46432832    -0.80920
O2277       O  0.54049198  0.53698213  0.60499357    -0.80900
O2278       O  0.99066826  0.99867952  0.59526754    -0.80950
O2279       O  0.52352758  0.95918989  0.40189284    -0.80920
O2280       O  0.54663681  0.49335733  0.54675575    -0.80880
O2281       O  0.95268609  0.94012634  0.52698175    -0.80950
Co2282     Co  0.53317945  0.50351098  0.41866814     1.51530
Co2283     Co  0.97572837  0.00632451  0.52132832     1.51690
Co2284     Co  0.96177315  0.95000107  0.45235626     1.51570
Co2285     Co  0.52613605  0.51971830  0.53569498     1.51470
O2286       O  0.49964874  0.49153841  0.47519333    -1.42840
C2287       C  0.56813076  0.49606247  0.51434867     1.08710
C2288       C  0.92938918  0.94216053  0.54404424     1.08800
C2289       C  0.51035565  0.93636316  0.43267624     1.08740
C2290       C  0.01571034  0.01554612  0.62560900     1.08710
O2291       O  0.93417558  0.69101393  0.00662825    -0.80910
O2292       O  0.54947057  0.82235323  0.05762796    -0.80930
O2293       O  0.50665355  0.71898291  0.12580410    -0.80940
O2294       O  0.95094332  0.77667289  0.98948489    -0.80880
O2295       O  0.51871844  0.76757913  0.12046984    -0.81000
O2296       O  0.92900959  0.73246239  0.94561726    -0.80920
O2297       O  0.50010944  0.80459662  0.04723105    -0.80910
O2298       O  0.95340655  0.71770917  0.08146287    -0.80950
C2299       C  0.93095300  0.69476241  0.05551163     1.08780
C2300       C  0.52631424  0.82788023  0.05525696     1.08670
C2301       C  0.51206289  0.74368033  0.14871544     1.08800
C2302       C  0.92678235  0.75240076  0.97522933     1.08680
O2303       O  0.98689065  0.73975848  0.88858633    -0.80910
O2304       O  0.57829858  0.78409834  0.07637225    -0.80990
O2305       O  0.48526669  0.68982273  0.03663140    -0.80920
O2306       O  0.54228795  0.81941724  0.95458193    -0.80900
O2307       O  0.56095416  0.78877034  0.97617465    -0.80950
O2308       O  0.98988692  0.69684168  0.95170983    -0.80920
O2309       O  0.98532285  0.78323158  0.89467630    -0.80880
O2310       O  0.54513027  0.73901224  0.03846023    -0.80950
Co2311     Co  0.96282906  0.71800884  0.95064736     1.51530
Co2312     Co  0.53797163  0.77679639  0.04406221     1.51690
Co2313     Co  0.49947218  0.73214356  0.05991491     1.51570
Co2314     Co  0.99459379  0.79369377  0.97275036     1.51470
O2315       O  0.49516561  0.75488637  0.99814959    -1.42840
C2316       C  0.98674803  0.76236985  0.86709638     1.08710
C2317       C  0.57415667  0.75947420  0.05306775     1.08800
C2318       C  0.98998457  0.68189330  0.99202444     1.08740
C2319       C  0.56575074  0.81386136  0.95748366     1.08710
O2320       O  0.93692457  0.70188148  0.52034168    -0.80910
O2321       O  0.52265775  0.82595815  0.52679658    -0.80930
O2322       O  0.51427095  0.74691189  0.62618009    -0.80940
O2323       O  0.95323689  0.74905141  0.41583267    -0.80880
O2324       O  0.50871626  0.78750965  0.61080924    -0.81000
O2325       O  0.93458435  0.71396067  0.47646199    -0.80920
O2326       O  0.48027803  0.80014636  0.47521438    -0.80910
O2327       O  0.96632262  0.69655506  0.58153336    -0.80950
C2328       C  0.93851754  0.68984048  0.56360478     1.08780
C2329       C  0.49988517  0.82484078  0.49871642     1.08670
C2330       C  0.50699048  0.76716457  0.64172651     1.08800
C2331       C  0.92973527  0.72988319  0.44177324     1.08680
O2332       O  0.97570720  0.71364869  0.40103941    -0.80910
O2333       O  0.56671548  0.78492213  0.59195299    -0.80990
O2334       O  0.50878539  0.69479078  0.49890318    -0.80920
O2335       O  0.54143848  0.81596660  0.43435133    -0.80900
O2336       O  0.57133311  0.81158422  0.49593408    -0.80950
O2337       O  0.95909034  0.66958867  0.47074055    -0.80920
O2338       O  0.01882620  0.75730805  0.40109956    -0.80880
O2339       O  0.55636325  0.74846104  0.53648460    -0.80950
Co2340     Co  0.97744013  0.71378686  0.48179860     1.51530
Co2341     Co  0.53826796  0.79788240  0.55208081     1.51690
Co2342     Co  0.51106230  0.72546853  0.55578431     1.51570
Co2343     Co  0.99904906  0.77776119  0.43930723     1.51470
O2344       O  0.50259332  0.75756391  0.50980457    -1.42840
C2345       C  0.99904356  0.73380162  0.37564641     1.08710
C2346       C  0.57493760  0.76686117  0.57131319     1.08800
C2347       C  0.98382548  0.66873724  0.48795596     1.08740
C2348       C  0.56881946  0.82492519  0.45535043     1.08710
O2349       O  0.72189820  0.54619193  0.04058038    -0.80910
O2350       O  0.74451370  0.94102049  0.97960719    -0.80930
O2351       O  0.67994573  0.94922995  0.96807129    -0.80940
O2352       O  0.77131414  0.49810806  0.11850555    -0.80880
O2353       O  0.71630690  0.93515699  0.95353984    -0.81000
O2354       O  0.75052448  0.52854388  0.11041869    -0.80920
O2355       O  0.78092096  0.96429691  0.04535737    -0.80910
O2356       O  0.68843736  0.99719692  0.02872661    -0.80950
C2357       C  0.69346590  0.52344139  0.04327395     1.08780
C2358       C  0.76182292  0.94038266  0.01887958     1.08670
C2359       C  0.68666558  0.92818225  0.95937773     1.08800
C2360       C  0.75731937  0.51160548  0.13820525     1.08680
O2361       O  0.78846920  0.58224092  0.06521104    -0.80910
O2362       O  0.74788206  0.96485708  0.87272250    -0.80990
O2363       O  0.72332161  0.53768895  0.94368963    -0.80920
O2364       O  0.81902769  0.51938627  0.98531588    -0.80900
O2365       O  0.79276080  0.97750608  0.93893649    -0.80950
O2366       O  0.77400218  0.55880644  0.96503736    -0.80920
O2367       O  0.81350136  0.55476182  0.06451419    -0.80880
O2368       O  0.72025916  0.98955633  0.88473779    -0.80950
Co2369     Co  0.76244812  0.54158430  0.03655775     1.51530
Co2370     Co  0.75170514  0.97974066  0.94275022     1.51690
Co2371     Co  0.70708836  0.99377839  0.96147930     1.51570
Co2372     Co  0.79165264  0.50791663  0.04911127     1.51470
O2373       O  0.74734904  0.49859089  0.00921911    -1.42840
C2374       C  0.81437631  0.58085146  0.07147115     1.08710
C2375       C  0.73336792  0.97820867  0.85355201     1.08800
C2376       C  0.75121967  0.56070376  0.94245690     1.08740
C2377       C  0.81939101  0.99857710  0.95691393     1.08710
O2378       O  0.71126424  0.52662729  0.56218165    -0.80910
O2379       O  0.75382268  0.95065913  0.52230087    -0.80930
O2380       O  0.67876242  0.96827780  0.42065302    -0.80940
O2381       O  0.75820789  0.48707745  0.59782899    -0.80880
O2382       O  0.70360472  0.94711564  0.46272161    -0.81000
O2383       O  0.76349901  0.53182011  0.61846868    -0.80920
O2384       O  0.80308845  0.97326909  0.55153807    -0.80910
O2385       O  0.69595626  0.98128601  0.52841099    -0.80950
C2386       C  0.68911213  0.49902752  0.55420076     1.08780
C2387       C  0.77857797  0.94835645  0.53478220     1.08670
C2388       C  0.67982203  0.94397750  0.43356273     1.08800
C2389       C  0.75577880  0.50462714  0.63129270     1.08680
O2390       O  0.80605442  0.57230862  0.53908292    -0.80910
O2391       O  0.74859320  0.98137960  0.38156941    -0.80990
O2392       O  0.70589430  0.53402469  0.46489959    -0.80920
O2393       O  0.82212556  0.52604565  0.48815729    -0.80900
O2394       O  0.79837989  0.98441099  0.44016793    -0.80950
O2395       O  0.75621705  0.56577308  0.48197403    -0.80920
O2396       O  0.82104041  0.54471861  0.58581397    -0.80880
O2397       O  0.73647779  0.01762800  0.39322910    -0.80950
Co2398     Co  0.75939908  0.54684438  0.54700682     1.51530
Co2399     Co  0.75191985  0.97078928  0.45585759     1.51690
Co2400     Co  0.71719561  0.99867580  0.46056989     1.51570
Co2401     Co  0.78954121  0.50574452  0.54125683     1.51470
O2402       O  0.75974309  0.51370196  0.49648197    -1.42840
C2403       C  0.82642893  0.57131238  0.57037383     1.08710
C2404       C  0.74374355  0.00201729  0.36285562     1.08800
C2405       C  0.72862785  0.56175733  0.47196579     1.08740
C2406       C  0.82398509  0.00808383  0.45560092     1.08710
O2407       O  0.68811383  0.70046592  0.02548971    -0.80910
O2408       O  0.77341244  0.81606601  0.05548892    -0.80930
O2409       O  0.73569955  0.72267694  0.11864746    -0.80940
O2410       O  0.71498868  0.76691571  0.01053692    -0.80880
O2411       O  0.77117566  0.77091068  0.11116142    -0.81000
O2412       O  0.68617666  0.73454108  0.94957040    -0.80920
O2413       O  0.76205169  0.81812578  0.97052431    -0.80910
O2414       O  0.70372494  0.66995758  0.05257660    -0.80950
C2415       C  0.68102981  0.67473429  0.04034811     1.08780
C2416       C  0.76947785  0.83059415  0.01714947     1.08670
C2417       C  0.75358413  0.74899701  0.13979690     1.08800
C2418       C  0.68799886  0.75188942  0.98784577     1.08680
O2419       O  0.72563310  0.71745562  0.88713404    -0.80910
O2420       O  0.80718801  0.77574499  0.04272864    -0.80990
O2421       O  0.76121710  0.68499107  0.00332936    -0.80920
O2422       O  0.79591926  0.79096514  0.93212573    -0.80900
O2423       O  0.80960257  0.79836659  0.01392536    -0.80950
O2424       O  0.71786059  0.67258326  0.95232958    -0.80920
O2425       O  0.73618826  0.76566389  0.89492280    -0.80880
O2426       O  0.79482705  0.73020495  0.07431395    -0.80950
Co2427     Co  0.70657739  0.70736326  0.95621640     1.51530
Co2428     Co  0.76317434  0.77373166  0.03549681     1.51690
Co2429     Co  0.74894420  0.70504032  0.05795406     1.51570
Co2430     Co  0.75486325  0.77579972  0.97161564     1.51470
O2431       O  0.74899225  0.73389040  0.99549278    -1.42840
C2432       C  0.73240988  0.74257077  0.86594576     1.08710
C2433       C  0.81396527  0.75412646  0.05149055     1.08800
C2434       C  0.74187639  0.66892384  0.96610329     1.08740
C2435       C  0.81771897  0.80586075  0.96608759     1.08710
O2436       O  0.71379851  0.68387196  0.43669924    -0.80910
O2437       O  0.74278494  0.80432037  0.51788058    -0.80930
O2438       O  0.68610485  0.74395049  0.53547248    -0.80940
O2439       O  0.78294879  0.78014315  0.39493821    -0.80880
O2440       O  0.71691332  0.77392018  0.60036100    -0.81000
O2441       O  0.73988004  0.73647424  0.39379317    -0.80920
O2442       O  0.78454786  0.82163708  0.47034047    -0.80910
O2443       O  0.68250150  0.70175176  0.46217487    -0.80950
C2444       C  0.68547828  0.68045469  0.44004184     1.08780
C2445       C  0.76302512  0.82568189  0.49170393     1.08670
C2446       C  0.68922237  0.75932973  0.57735713     1.08800
C2447       C  0.75897113  0.75941303  0.36934695     1.08680
O2448       O  0.78291800  0.71527014  0.41550306    -0.80910
O2449       O  0.76622946  0.75591790  0.61226483    -0.80990
O2450       O  0.71308689  0.67971000  0.53678674    -0.80920
O2451       O  0.80974871  0.79820153  0.54978466    -0.80900
O2452       O  0.78752930  0.81890790  0.59859477    -0.80950
O2453       O  0.76392444  0.70443761  0.51746437    -0.80920
O2454       O  0.81147701  0.75549759  0.47051573    -0.80880
O2455       O  0.71500648  0.72177460  0.61105932    -0.80950
Co2456     Co  0.75455446  0.72396649  0.45667795     1.51530
Co2457     Co  0.75676879  0.78050142  0.56099243     1.51690
Co2458     Co  0.70198661  0.71432033  0.53418130     1.51570
Co2459     Co  0.79155860  0.78459415  0.47413613     1.51470
O2460       O  0.74297911  0.74928952  0.50185936    -1.42840
C2461       C  0.80990991  0.73456156  0.43732229     1.08710
C2462       C  0.74157873  0.73683127  0.63645725     1.08800
C2463       C  0.73945013  0.67956232  0.52988447     1.08740
C2464       C  0.81274128  0.82221271  0.57537269     1.08710
C2465       C  0.71454610  0.71504500  0.77852567    -0.21080
C2466       C  0.73426706  0.74283846  0.80667257    -0.07640
C2467       C  0.75756194  0.76778741  0.77830159     0.13230
C2468       C  0.76080443  0.76451214  0.72358021    -0.21130
C2469       C  0.74096668  0.73682159  0.69553318    -0.07650
C2470       C  0.71734473  0.71169816  0.72379045     0.13210
C2471       C  0.69529879  0.68091869  0.69721782    -0.24480
H2472       H  0.69668249  0.69554178  0.79971116     0.14500
H2473       H  0.77850472  0.78407567  0.70232254     0.14530
C2474       C  0.78033175  0.79733495  0.80591293    -0.24430
H2475       H  0.68080063  0.66323237  0.72633490     0.04740
H2476       H  0.70995086  0.67272736  0.67575060     0.07970
H2477       H  0.67797582  0.68272351  0.66936550     0.07970
H2478       H  0.79454948  0.79213536  0.83511497     0.07950
H2479       H  0.76681917  0.80738822  0.82582085     0.07950
H2480       H  0.79718390  0.81450521  0.77807464     0.04730
C2481       C  0.72646875  0.73662713  0.22646201    -0.21080
C2482       C  0.75439808  0.75439874  0.19811181    -0.07640
C2483       C  0.78270570  0.77652507  0.22619873     0.13230
C2484       C  0.78259952  0.77897980  0.28174030    -0.21130
C2485       C  0.75519982  0.75993979  0.31052725    -0.07650
C2486       C  0.72632515  0.73912968  0.28200973     0.13210
C2487       C  0.69509871  0.71922134  0.30921138    -0.24480
H2488       H  0.70462662  0.72028116  0.20497296     0.14500
H2489       H  0.80470232  0.79494633  0.30299932     0.14530
C2490       C  0.81378551  0.79668460  0.19864741    -0.24430
H2491       H  0.67457531  0.70698712  0.28033110     0.04740
H2492       H  0.68921198  0.73370206  0.33569399     0.07970
H2493       H  0.69702403  0.70132169  0.33220122     0.07970
H2494       H  0.81052133  0.81253773  0.17185796     0.07950
H2495       H  0.82133500  0.78218182  0.17563098     0.07950
H2496       H  0.83376579  0.81116433  0.22724952     0.04730
C2497       C  0.79525386  0.88273995  0.48919147    -0.21080
C2498       C  0.76521008  0.85674866  0.49588141    -0.07640
C2499       C  0.74005811  0.86136050  0.51579732     0.13230
C2500       C  0.74665747  0.89095755  0.53351835    -0.21130
C2501       C  0.77675872  0.91727479  0.52658329    -0.07650
C2502       C  0.80078243  0.91259304  0.50188381     0.13210
C2503       C  0.83154485  0.93859723  0.48486168    -0.24480
H2504       H  0.81470834  0.87975767  0.47351643     0.14500
H2505       H  0.72755381  0.89372541  0.55117311     0.14530
C2506       C  0.70578011  0.83561420  0.51591027    -0.24430
H2507       H  0.84812843  0.93116302  0.46767562     0.04740
H2508       H  0.84365735  0.95323266  0.51968782     0.07970
H2509       H  0.82582173  0.95082112  0.45409449     0.07970
H2510       H  0.70393069  0.81773428  0.54267968     0.07950
H2511       H  0.69802551  0.82541021  0.47531946     0.07950
H2512       H  0.68885311  0.84353459  0.52958934     0.04730
C2513       C  0.71552402  0.59384110  0.53216542    -0.21080
C2514       C  0.72456426  0.58921481  0.48137420    -0.07640
C2515       C  0.74036879  0.61494996  0.44894931     0.13230
C2516       C  0.74678317  0.64423022  0.46769106    -0.21130
C2517       C  0.73771516  0.64907322  0.51825668    -0.07650
C2518       C  0.72138435  0.62318321  0.55053481     0.13210
C2519       C  0.71109891  0.62659010  0.60506418    -0.24480
H2520       H  0.70465235  0.57457914  0.55833786     0.14500
H2521       H  0.75776660  0.66319192  0.44136964     0.14530
C2522       C  0.75059376  0.61146974  0.39422191    -0.24430
H2523       H  0.70004049  0.60443967  0.62609326     0.04740
H2524       H  0.69293611  0.63448476  0.60221746     0.07970
H2525       H  0.73245968  0.64356725  0.62894431     0.07970
H2526       H  0.72915100  0.59467340  0.37028509     0.07950
H2527       H  0.76841770  0.60312377  0.39671888     0.07950
H2528       H  0.76191470  0.63365083  0.37328990     0.04730
C2529       C  0.73848317  0.51348269  0.71870029    -0.21080
C2530       C  0.74587440  0.49467582  0.68631838    -0.07640
C2531       C  0.74535830  0.96833213  0.70838578     0.13230
C2532       C  0.73919349  0.96272205  0.76242452    -0.21130
C2533       C  0.73383898  0.98267346  0.79545900    -0.07650
C2534       C  0.73284337  0.50814699  0.77282550     0.13210
C2535       C  0.72781762  0.53104413  0.80539727    -0.24480
H2536       H  0.73818698  0.53330372  0.70194602     0.14500
H2537       H  0.73965379  0.94303827  0.77947480     0.14530
C2538       C  0.75240351  0.94650151  0.67644650    -0.24430
H2539       H  0.72856272  0.54979537  0.78100113     0.04740
H2540       H  0.74729392  0.54192252  0.83629924     0.07970
H2541       H  0.70386750  0.51939812  0.82390759     0.07970
H2542       H  0.77711206  0.95904522  0.66074037     0.07950
H2543       H  0.73436531  0.93582482  0.64331194     0.07950
H2544       H  0.75117758  0.92751113  0.70072369     0.04730
C2545       C  0.72730790  0.98347670  0.21622576    -0.21080
C2546       C  0.75192399  0.51028239  0.19522878    -0.07080
C2547       C  0.77258488  0.53536732  0.22923953     0.13230
C2548       C  0.76845918  0.53282266  0.28412213    -0.21130
C2549       C  0.74449689  0.00563780  0.30529660    -0.07650
C2550       C  0.72322970  0.98086686  0.27111181     0.13210
C2551       C  0.69598233  0.95180673  0.29234354    -0.24480
H2552       H  0.71154194  0.96451271  0.18966272     0.14500
H2553       H  0.78474016  0.55154051  0.31066934     0.14530
C2554       C  0.79978598  0.56435394  0.20778579    -0.24430
H2555       H  0.68132977  0.93523450  0.25994313     0.04740
H2556       H  0.67974707  0.95754227  0.31514044     0.07970
H2557       H  0.70560388  0.94017943  0.31838561     0.07970
H2558       H  0.78987133  0.57534842  0.18084865     0.07950
H2559       H  0.81636395  0.55873498  0.18567543     0.07950
H2560       H  0.81407073  0.58130951  0.23995282     0.04730
C2561       C  0.73980251  0.85753129  0.03700411    -0.21080
C2562       C  0.76953641  0.85932750  0.02753596    -0.07640
C2563       C  0.79760564  0.88806303  0.02561734     0.13230
C2564       C  0.79446908  0.91456542  0.02495505    -0.21130
C2565       C  0.76403574  0.91254078  0.02903389    -0.07650
C2566       C  0.73716789  0.88416218  0.04033279     0.13210
C2567       C  0.70623624  0.88205392  0.05684380    -0.24480
H2568       H  0.71851332  0.83527281  0.04084090     0.14500
H2569       H  0.81553678  0.93668092  0.01897288     0.14530
C2570       C  0.83032757  0.89057165  0.02247111    -0.24430
H2571       H  0.68753129  0.85806581  0.06493592     0.04740
H2572       H  0.69761607  0.89048448  0.02421141     0.07970
H2573       H  0.71042706  0.89663543  0.09300548     0.07970
H2574       H  0.83489361  0.87969509  0.05736001     0.07950
H2575       H  0.83091745  0.87852224  0.98594661     0.07950
H2576       H  0.84986060  0.91490966  0.02135622     0.04730
C2577       C  0.77687261  0.64551762  0.94801284    -0.21080
C2578       C  0.74629114  0.64358484  0.94248897    -0.07640
C2579       C  0.72037273  0.61609570  0.92061166     0.13230
C2580       C  0.72470723  0.59037921  0.91245424    -0.21130
C2581       C  0.75369420  0.59078991  0.92762399    -0.07650
C2582       C  0.78105555  0.61963424  0.94009797     0.13210
C2583       C  0.81456109  0.62358034  0.94546540    -0.24480
H2584       H  0.79739569  0.66699493  0.96174176     0.14500
H2585       H  0.70407341  0.56886521  0.89914242     0.14530
C2586       C  0.68733048  0.61250239  0.90973478    -0.24430
H2587       H  0.83312379  0.64821230  0.95070974     0.04740
H2588       H  0.82010322  0.61441966  0.90911456     0.07970
H2589       H  0.81683705  0.61156298  0.98030839     0.07970
H2590       H  0.68894676  0.62997702  0.88123596     0.07950
H2591       H  0.67698200  0.61503974  0.94733398     0.07950
H2592       H  0.67035280  0.58950013  0.89202518     0.04730
C2593       C  0.85146579  0.62872372  0.58197229    -0.21080
C2594       C  0.85528708  0.60221699  0.58585246    -0.07640
C2595       C  0.88683597  0.60725047  0.59707287     0.13230
C2596       C  0.91329467  0.63722382  0.59711247    -0.21130
C2597       C  0.90961289  0.66275276  0.58463705    -0.07650
C2598       C  0.87815195  0.65881203  0.58149188     0.13210
C2599       C  0.87271518  0.68621289  0.57915887    -0.24480
H2600       H  0.82743181  0.62587415  0.57668568     0.14500
H2601       H  0.93745961  0.64011545  0.60027245     0.14530
C2602       C  0.89417566  0.58153751  0.59849646    -0.24430
H2603       H  0.84659481  0.67909020  0.57707169     0.04740
H2604       H  0.88406265  0.70022533  0.54422760     0.07970
H2605       H  0.88349662  0.70090862  0.61539264     0.07970
H2606       H  0.89177889  0.57351933  0.55677701     0.07950
H2607       H  0.87773293  0.56341659  0.62531089     0.07950
H2608       H  0.91935586  0.58907139  0.61238931     0.04730
C2609       C  0.62224113  0.90650892  0.40620662    -0.21080
C2610       C  0.65247809  0.91188122  0.42483082    -0.07640
C2611       C  0.65581429  0.88580231  0.43815944     0.13230
C2612       C  0.62825823  0.85741866  0.44659711    -0.21130
C2613       C  0.59737142  0.85311818  0.43548857    -0.07650
C2614       C  0.59490029  0.87708373  0.40890033     0.13210
C2615       C  0.56393343  0.87231410  0.38343081    -0.24480
H2616       H  0.61989437  0.92529308  0.38986116     0.14500
H2617       H  0.63093005  0.83854971  0.46224426     0.14530
C2618       C  0.68814004  0.88714424  0.44185384    -0.24430
H2619       H  0.56674755  0.89329304  0.36371187     0.04740
H2620       H  0.54596700  0.86655594  0.41399573     0.07970
H2621       H  0.55519424  0.85338097  0.35310944     0.07970
H2622       H  0.70064369  0.89864588  0.47950476     0.07950
H2623       H  0.70292845  0.89961842  0.40768841     0.07950
H2624       H  0.68553377  0.86376028  0.44052672     0.04730
C2625       C  0.89803239  0.75635523  0.42361051    -0.21080
C2626       C  0.89773662  0.72847511  0.43353960    -0.07640
C2627       C  0.86750126  0.70127019  0.43584478     0.13230
C2628       C  0.83880921  0.70344033  0.43505061    -0.21130
C2629       C  0.83958478  0.73196042  0.42948420    -0.07650
C2630       C  0.86958642  0.75833907  0.42030558     0.13210
C2631       C  0.87268916  0.78889167  0.40513623    -0.24480
H2632       H  0.92086775  0.77717706  0.41900949     0.14500
H2633       H  0.81583078  0.68288426  0.43975492     0.14530
C2634       C  0.86522356  0.66996772  0.43610581    -0.24430
H2635       H  0.88419022  0.79536740  0.36601902     0.04740
H2636       H  0.88836760  0.80693401  0.43476957     0.07970
H2637       H  0.84923433  0.78857836  0.40145842     0.07970
H2638       H  0.87775714  0.66741709  0.47141946     0.07950
H2639       H  0.87650197  0.66682599  0.40007684     0.07950
H2640       H  0.83972925  0.65122928  0.43614626     0.04730
C2641       C  0.66102204  0.78714786  0.61206710    -0.21080
C2642       C  0.65998955  0.75949939  0.59623544    -0.07640
C2643       C  0.62961535  0.73291890  0.58730167     0.13230
C2644       C  0.60196079  0.73598637  0.58389712    -0.21130
C2645       C  0.60378067  0.76488283  0.58898851    -0.07650
C2646       C  0.63323767  0.79050425  0.60681499     0.13210
C2647       C  0.63608979  0.82167912  0.61652479    -0.24480
H2648       H  0.68397709  0.80688722  0.62347811     0.14500
H2649       H  0.57895647  0.71584707  0.57396538     0.14530
C2650       C  0.62616043  0.70122345  0.58008302    -0.24430
H2651       H  0.66108691  0.83918483  0.62879143     0.04740
H2652       H  0.61980264  0.82037436  0.64859576     0.07970
H2653       H  0.62950768  0.82953683  0.57965816     0.07970
H2654       H  0.63878965  0.69665427  0.61330464     0.07950
H2655       H  0.63569700  0.69863867  0.54175009     0.07950
H2656       H  0.60054973  0.68324554  0.57973908     0.04730
C2657       C  0.50685697  0.79269212  0.78491453    -0.21080
C2658       C  0.98865887  0.76403962  0.80842228    -0.07640
C2659       C  0.97370615  0.73702153  0.77548123     0.13230
C2660       C  0.97912693  0.73924447  0.72096268    -0.21130
C2661       C  0.49874925  0.76758816  0.69791181    -0.07650
C2662       C  0.51223308  0.79482648  0.73002376     0.13210
C2663       C  0.53367474  0.82594518  0.70731850    -0.24480
H2664       H  0.51807444  0.81336170  0.80989894     0.14500
H2665       H  0.96843095  0.71849534  0.69609645     0.14530
C2666       C  0.95159059  0.70562819  0.79695572    -0.24430
H2667       H  0.54316281  0.84450308  0.73843832     0.04740
H2668       H  0.51981979  0.83144384  0.67757992     0.07970
H2669       H  0.55459998  0.82597067  0.68825088     0.07970
H2670       H  0.93225920  0.70643517  0.81990377     0.07950
H2671       H  0.96541756  0.69790145  0.82251003     0.07950
H2672       H  0.93976534  0.68794244  0.76468563     0.04730
C2673       C  0.53071717  0.75678739  0.29565063    -0.21080
C2674       C  0.00167032  0.73386747  0.31691814    -0.07640
C2675       C  0.97556258  0.71517336  0.28169862     0.13230
C2676       C  0.97939319  0.71985347  0.22688180    -0.21130
C2677       C  0.50819708  0.74316229  0.20640158    -0.07650
C2678       C  0.53417187  0.76175288  0.24108626     0.13210
C2679       C  0.56587552  0.78610112  0.22047241    -0.24480
H2680       H  0.55097617  0.77132236  0.32197565     0.14500
H2681       H  0.95974468  0.70517467  0.19957186     0.14530
C2682       C  0.94352721  0.69074775  0.30109593    -0.24430
H2683       H  0.58389554  0.79838971  0.25309517     0.04740
H2684       H  0.56213324  0.80335187  0.19849540     0.07970
H2685       H  0.57598790  0.77532643  0.19347935     0.07970
H2686       H  0.93270447  0.70143532  0.32672236     0.07950
H2687       H  0.94689554  0.67347540  0.32371068     0.07950
H2688       H  0.92609707  0.67838969  0.26776685     0.04730
C2689       C  0.84564773  0.63668081  0.09528172    -0.21080
C2690       C  0.84602185  0.60935891  0.08290436    -0.07640
C2691       C  0.87654164  0.61091422  0.07638025     0.13230
C2692       C  0.90469436  0.63986173  0.07611503    -0.21130
C2693       C  0.90368699  0.66757339  0.08088753    -0.07650
C2694       C  0.87372336  0.66551250  0.09384282     0.13210
C2695       C  0.86995827  0.69317479  0.10207226    -0.24480
H2696       H  0.82271344  0.63571415  0.10242876     0.14500
H2697       H  0.92744495  0.64092464  0.06688327     0.14530
C2698       C  0.88006567  0.58273714  0.06625926    -0.24430
H2699       H  0.84501888  0.68742303  0.11246618     0.04740
H2700       H  0.87489679  0.70470611  0.06395153     0.07970
H2701       H  0.88627768  0.70760242  0.13509480     0.07970
H2702       H  0.86791097  0.57139529  0.02802059     0.07950
H2703       H  0.86962464  0.56652557  0.09923541     0.07950
H2704       H  0.90575969  0.58854504  0.06356199     0.04730
C2705       C  0.61363752  0.85597234  0.00387376    -0.21080
C2706       C  0.59960970  0.84000283  0.95586060    -0.07640
C2707       C  0.61732564  0.85099845  0.90929203     0.13230
C2708       C  0.64758635  0.87855485  0.91191476    -0.21130
C2709       C  0.65945583  0.89604706  0.95969923    -0.07650
C2710       C  0.64140906  0.88472367  0.00587591     0.13210
C2711       C  0.65032158  0.90248611  0.05828845    -0.24480
H2712       H  0.60247738  0.84698216  0.04082673     0.14500
H2713       H  0.66091680  0.88743173  0.87605946     0.14530
C2714       C  0.60428325  0.83371326  0.85739159    -0.24430
H2715       H  0.65200647  0.88806089  0.09004564     0.04740
H2716       H  0.63128943  0.90836969  0.06861827     0.07970
H2717       H  0.67372227  0.92411603  0.05814704     0.07970
H2718       H  0.58081380  0.83245327  0.84706468     0.07950
H2719       H  0.60063654  0.80998120  0.86076007     0.07950
H2720       H  0.62109682  0.84510002  0.82473902     0.04730
C2721       C  0.86895551  0.76237175  0.06462114    -0.21080
C2722       C  0.84317637  0.75540754  0.02989705    -0.07640
C2723       C  0.84398803  0.74579046  0.97672641     0.13230
C2724       C  0.87060370  0.74304017  0.96013453    -0.21130
C2725       C  0.89652267  0.75002040  0.99501110    -0.07650
C2726       C  0.89574107  0.76021145  0.04806222     0.13210
C2727       C  0.92148354  0.76586477  0.08972480    -0.24480
H2728       H  0.86774948  0.76889140  0.10535256     0.14500
H2729       H  0.87153059  0.73635606  0.91939014     0.14530
C2730       C  0.81749535  0.73837269  0.93597453    -0.24430
H2731       H  0.91560825  0.77123944  0.12952723     0.04740
H2732       H  0.94490150  0.78469896  0.07966113     0.07970
H2733       H  0.92491325  0.74571282  0.09279787     0.07970
H2734       H  0.82721082  0.75452341  0.90273417     0.07950
H2735       H  0.79711165  0.74020166  0.95212687     0.07950
H2736       H  0.80810467  0.71455564  0.92003161     0.04730
C2737       C  0.63233760  0.74363905  0.97127951    -0.21080
C2738       C  0.65901816  0.75361052  0.00632283    -0.07640
C2739       C  0.65680936  0.76393480  0.05818552     0.13230
C2740       C  0.62902744  0.76573651  0.07189328    -0.21130
C2741       C  0.60252300  0.75615316  0.03646245    -0.07650
C2742       C  0.60423941  0.74457161  0.98531860     0.13210
C2743       C  0.57737007  0.73396468  0.94380505    -0.24480
H2744       H  0.63361635  0.73532541  0.93195851     0.14500
H2745       H  0.62768816  0.77411356  0.11113413     0.14530
C2746       C  0.68269280  0.77159909  0.10048928    -0.24430
H2747       H  0.58314568  0.72538739  0.90696669     0.04740
H2748       H  0.57343075  0.75323868  0.93236236     0.07970
H2749       H  0.55477878  0.71478092  0.95821951     0.07970
H2750       H  0.70568914  0.79165979  0.08928989     0.07950
H2751       H  0.68641734  0.75143467  0.10632450     0.07950
H2752       H  0.67601483  0.77748055  0.13919192     0.04730
C2753       C  0.84483552  0.88061611  0.59177651    -0.21080
C2754       C  0.84386319  0.85291811  0.57432009    -0.07640
C2755       C  0.87254071  0.85546968  0.55295707     0.13230
C2756       C  0.89937819  0.88466523  0.54556478    -0.21130
C2757       C  0.89991131  0.91247905  0.55978089    -0.07650
C2758       C  0.87267048  0.91008633  0.58605644     0.13210
C2759       C  0.87357265  0.93816970  0.61075087    -0.24480
H2760       H  0.82368606  0.87930551  0.60984882     0.14500
H2761       H  0.92020163  0.88553164  0.52700254     0.14530
C2762       C  0.87563610  0.82764500  0.53731632    -0.24430
H2763       H  0.85028028  0.93267201  0.62888980     0.04740
H2764       H  0.87894380  0.95583519  0.58075232     0.07970
H2765       H  0.89288100  0.94799000  0.64216661     0.07970
H2766       H  0.85924310  0.81540233  0.50295800     0.07950
H2767       H  0.86986071  0.81205855  0.57133422     0.07950
H2768       H  0.90047821  0.83397359  0.52533803     0.04730
C2769       C  0.59728988  0.61745837  0.42901007    -0.21080
C2770       C  0.59989395  0.59257113  0.44919583    -0.07640
C2771       C  0.63093428  0.59560438  0.45652379     0.13230
C2772       C  0.65845519  0.62380704  0.44682324    -0.21130
C2773       C  0.65615676  0.64969597  0.43144175    -0.07650
C2774       C  0.62498447  0.64598874  0.42014912     0.13210
C2775       C  0.61999426  0.67150066  0.39859450    -0.24480
H2776       H  0.57353106  0.61495834  0.42163611     0.14500
H2777       H  0.68195735  0.62608348  0.45476524     0.14530
C2778       C  0.63524346  0.56901737  0.47421124    -0.24430
H2779       H  0.60699836  0.67803250  0.42776254     0.04740
H2780       H  0.60529337  0.66339832  0.36113982     0.07970
H2781       H  0.64291830  0.69222405  0.38926652     0.07970
H2782       H  0.62247801  0.54940973  0.44571987     0.07950
H2783       H  0.62592658  0.56218718  0.51462989     0.07950
H2784       H  0.66087694  0.57486656  0.47512379     0.04730
C2785       C  0.86192167  0.00232453  0.39556268    -0.21080
C2786       C  0.85548396  0.01017985  0.44628189    -0.07640
C2787       C  0.87505322  0.01108913  0.49040534     0.13230
C2788       C  0.89906367  0.00378484  0.48255454    -0.21130
C2789       C  0.90602320  0.99658365  0.43322564    -0.07650
C2790       C  0.88702141  0.99511601  0.38858938     0.13210
C2791       C  0.89150986  0.98470638  0.33479019    -0.24480
H2792       H  0.84614049  0.99996491  0.36210872     0.14500
H2793       H  0.91223285  0.00295496  0.51698509     0.14530
C2794       C  0.87028898  0.01526838  0.54831670    -0.24430
H2795       H  0.86864558  0.96433874  0.32086085     0.04740
H2796       H  0.91059751  0.97794108  0.33540297     0.07970
H2797       H  0.89799336  0.50350337  0.30628446     0.07970
H2798       H  0.86224969  0.99372509  0.57005268     0.07950
H2799       H  0.85327946  0.52352339  0.55578324     0.07950
H2800       H  0.89397261  0.03136582  0.56736978     0.04730
C2801       C  0.61159867  0.50263134  0.58095557    -0.21080
C2802       C  0.59599002  0.49167282  0.53083946    -0.07640
C2803       C  0.60996011  0.47992395  0.49449297     0.13230
C2804       C  0.63551876  0.47566369  0.51156926    -0.21130
C2805       C  0.65443737  0.49119214  0.55650634    -0.07650
C2806       C  0.64187076  0.50436677  0.59275759     0.13210
C2807       C  0.65995073  0.51975287  0.64364560    -0.24480
H2808       H  0.60172403  0.51237331  0.60875956     0.14500
H2809       H  0.64328000  0.46370181  0.48554793     0.14530
C2810       C  0.60110623  0.47473379  0.43594590    -0.24430
H2811       H  0.64608419  0.02760723  0.66840374     0.04740
H2812       H  0.68339549  0.54017877  0.63525595     0.07970
H2813       H  0.66436859  0.00326562  0.66679660     0.07970
H2814       H  0.60636123  0.49674159  0.41754258     0.07950
H2815       H  0.57561990  0.95773031  0.42894328     0.07950
H2816       H  0.61557641  0.46647529  0.41423410     0.04730
C2817       C  0.53183157  0.91010318  0.48313330    -0.21080
C2818       C  0.51675390  0.91066267  0.43522058    -0.07640
C2819       C  0.99431291  0.88259227  0.41023627     0.13230
C2820       C  0.98698390  0.85474681  0.43431894    -0.21130
C2821       C  0.50201872  0.85426704  0.48279113    -0.07650
C2822       C  0.52464530  0.88265586  0.50770997     0.13210
C2823       C  0.54069792  0.88482710  0.56114956    -0.24480
H2824       H  0.54674187  0.93153895  0.50468904     0.14500
H2825       H  0.97023613  0.83330413  0.41412297     0.14530
C2826       C  0.97692642  0.88222877  0.35940913    -0.24430
H2827       H  0.55361987  0.90885339  0.57734544     0.04740
H2828       H  0.55906188  0.87723677  0.55780148     0.07970
H2829       H  0.52226563  0.87065849  0.59010307     0.07970
H2830       H  0.99481376  0.89449000  0.32853329     0.07950
H2831       H  0.96226535  0.89380101  0.36581069     0.07950
H2832       H  0.96044794  0.85837405  0.34452021     0.04730
C2833       C  0.51055453  0.64096804  0.52882194    -0.21080
C2834       C  0.98430546  0.63930230  0.49862559    -0.07640
C2835       C  0.95853046  0.60970568  0.48401718     0.13230
C2836       C  0.96030022  0.58329502  0.49847333    -0.21130
C2837       C  0.98655943  0.58512112  0.52801878    -0.07650
C2838       C  0.51179157  0.61433852  0.54387734     0.13210
C2839       C  0.53928290  0.61725622  0.57870112    -0.24480
H2840       H  0.53009797  0.66325265  0.54176662     0.14500
H2841       H  0.94122755  0.56101760  0.48559713     0.14530
C2842       C  0.92903979  0.60538728  0.45312389    -0.24430
H2843       H  0.55476802  0.64125295  0.59307334     0.04740
H2844       H  0.55423090  0.60961954  0.55648308     0.07970
H2845       H  0.52968113  0.60293365  0.61419170     0.07970
H2846       H  0.93627172  0.61744415  0.41495575     0.07950
H2847       H  0.91583878  0.61449173  0.47665953     0.07950
H2848       H  0.91198102  0.58069615  0.44391475     0.04730
C2849       C  0.98672924  0.48463102  0.70300182    -0.21080
C2850       C  0.01542393  0.00844274  0.68304441    -0.07640
C2851       C  0.54249503  0.02437948  0.71834654     0.13230
C2852       C  0.53934021  0.01722642  0.77234492    -0.21130
C2853       C  0.01005308  0.49470282  0.79271134    -0.07650
C2854       C  0.98359923  0.47754993  0.75699660     0.13210
C2855       C  0.95141604  0.45268856  0.77522422    -0.24480
H2856       H  0.96604914  0.47183092  0.67639460     0.14500
H2857       H  0.55974658  0.03018895  0.79942881     0.14530
C2858       C  0.57474529  0.04931077  0.70047713    -0.24430
H2859       H  0.93354268  0.44204974  0.74181394     0.04740
H2860       H  0.94128400  0.46254858  0.80390292     0.07970
H2861       H  0.95436733  0.93412346  0.79398955     0.07970
H2862       H  0.57226162  0.56877578  0.68469696     0.07950
H2863       H  0.58418538  0.03990442  0.66967384     0.07950
H2864       H  0.59300001  0.05866357  0.73357273     0.04730
C2865       C  0.97621836  0.50388918  0.20681589    -0.21080
C2866       C  0.47744931  0.98059399  0.17627299    -0.07640
C2867       C  0.47394751  0.95398951  0.20231072     0.13230
C2868       C  0.47134548  0.95245790  0.25773871    -0.21130
C2869       C  0.47399265  0.47738985  0.28830174    -0.07650
C2870       C  0.97554963  0.50314359  0.26230757     0.13210
C2871       C  0.97815069  0.53076411  0.29246689    -0.24480
H2872       H  0.97839773  0.52414896  0.18760833     0.14500
H2873       H  0.47012605  0.93275939  0.27769795     0.14530
C2874       C  0.47416564  0.92752357  0.17291356    -0.24430
H2875       H  0.97543894  0.54697093  0.26572174     0.04740
H2876       H  0.00217890  0.54371447  0.31269888     0.07970
H2877       H  0.95914536  0.52346586  0.32229277     0.07970
H2878       H  0.49831010  0.43487193  0.15670505     0.07950
H2879       H  0.45575420  0.91925837  0.14035980     0.07950
H2880       H  0.46852444  0.90783878  0.19905926     0.04730
C2881       C  0.88429533  0.88370704  0.93328919    -0.21080
C2882       C  0.90471088  0.88895421  0.97752153    -0.07640
C2883       C  0.89812217  0.86538346  0.01281577     0.13230
C2884       C  0.87267337  0.83609381  0.00050592    -0.21130
C2885       C  0.85068647  0.83083411  0.95792901    -0.07650
C2886       C  0.85691591  0.85523025  0.92369615     0.13210
C2887       C  0.83475492  0.85244936  0.87846067    -0.24480
H2888       H  0.88998171  0.90221022  0.90591591     0.14500
H2889       H  0.86780280  0.81810792  0.02831102     0.14530
C2890       C  0.91621473  0.87151512  0.06499197    -0.24430
H2891       H  0.84174587  0.87504276  0.86045513     0.04740
H2892       H  0.80963398  0.84314157  0.89180632     0.07970
H2893       H  0.83698317  0.83778015  0.84752055     0.07970
H2894       H  0.91069237  0.88694236  0.08954818     0.07950
H2895       H  0.94249978  0.88290934  0.05917268     0.07950
H2896       H  0.90897292  0.85004652  0.08705733     0.04730
C2897       C  0.64081535  0.64638339  0.97090788    -0.21080
C2898       C  0.64953271  0.65025535  0.02522850    -0.07640
C2899       C  0.62731783  0.63309762  0.06322901     0.13230
C2900       C  0.59685557  0.61076396  0.04565466    -0.21130
C2901       C  0.58920445  0.60445458  0.99101552    -0.07650
C2902       C  0.61078815  0.62297425  0.95305764     0.13210
C2903       C  0.60300130  0.61710630  0.89451002    -0.24480
H2904       H  0.65796439  0.66097693  0.94225600     0.14500
H2905       H  0.57955510  0.59663471  0.07464939     0.14530
C2906       C  0.63582326  0.63823409  0.12168865    -0.24430
H2907       H  0.62320805  0.63381549  0.87057087     0.04740
H2908       H  0.58130275  0.61927432  0.88461841     0.07970
H2909       H  0.59829632  0.59358284  0.88325785     0.07970
H2910       H  0.64276523  0.66230794  0.13349110     0.07950
H2911       H  0.65636970  0.63405693  0.13053472     0.07950
H2912       H  0.61521554  0.62251090  0.14596801     0.04730
C2913       C  0.89609781  0.99249738  0.98073418    -0.21080
C2914       C  0.90445733  0.98896475  0.92897828    -0.07640
C2915       C  0.88532034  0.48990415  0.88610045     0.13230
C2916       C  0.85796309  0.49336819  0.89628831    -0.21130
C2917       C  0.84987000  0.99726897  0.94822865    -0.07650
C2918       C  0.86974335  0.99720275  0.99101050     0.13210
C2919       C  0.86398514  0.00126869  0.04845416    -0.24480
H2920       H  0.91086151  0.99229486  0.01392131     0.14500
H2921       H  0.84278130  0.49309887  0.86341891     0.14530
C2922       C  0.89292655  0.48615988  0.82978694    -0.24430
H2923       H  0.86057148  0.98083355  0.07071708     0.04740
H2924       H  0.84266174  0.00412591  0.05483946     0.07970
H2925       H  0.88538659  0.02194274  0.06573355     0.07970
H2926       H  0.89216527  0.46362832  0.82447213     0.07950
H2927       H  0.91725221  0.50502760  0.82031976     0.07950
H2928       H  0.87524127  0.48685338  0.80114203     0.04730
C2929       C  0.61468148  0.51320833  0.09820594    -0.21080
C2930       C  0.60016104  0.51695502  0.05176401    -0.07640
C2931       C  0.61914515  0.02763547  0.00573179     0.13230
C2932       C  0.65112218  0.03319806  0.00714689    -0.21130
C2933       C  0.66469661  0.52717511  0.05194424    -0.07650
C2934       C  0.64644006  0.51739118  0.09830719     0.13210
C2935       C  0.66017226  0.51037766  0.14709887    -0.24480
H2936       H  0.60044559  0.50497747  0.13336963     0.14500
H2937       H  0.66482074  0.04004441  0.97119634     0.14530
C2938       C  0.60687716  0.03280978  0.95328095    -0.24430
H2939       H  0.64303743  0.50314183  0.18012491     0.04740
H2940       H  0.68278219  0.53122290  0.16044560     0.07970
H2941       H  0.66562007  0.49148701  0.13811082     0.07970
H2942       H  0.62163542  0.05730472  0.94270056     0.07950
H2943       H  0.58150561  0.02756629  0.95264842     0.07950
H2944       H  0.60913844  0.01811207  0.92196158     0.04730
C2945       C  0.55469552  0.88249346  0.01782205    -0.21080
C2946       C  0.52796687  0.85789239  0.04142108    -0.07640
C2947       C  0.99846537  0.85832801  0.03864796     0.13230
C2948       C  0.99377808  0.87608134  0.00114334    -0.21130
C2949       C  0.02013869  0.90306661  0.98420798    -0.07650
C2950       C  0.55147074  0.90662937  0.99350792     0.13210
C2951       C  0.58137332  0.93553026  0.97916914    -0.24480
H2952       H  0.57796534  0.88362925  0.01999354     0.14500
H2953       H  0.96979228  0.87344388  0.99632457     0.14530
C2954       C  0.97338352  0.84417987  0.08003648    -0.24430
H2955       H  0.59554593  0.92974218  0.95122509     0.04740
H2956       H  0.59640524  0.94667473  0.01550870     0.07970
H2957       H  0.57552505  0.95224265  0.95998169     0.07970
H2958       H  0.97981423  0.83177339  0.10991318     0.07950
H2959       H  0.94943804  0.82916294  0.06069944     0.07950
H2960       H  0.97193084  0.86282245  0.10235061     0.04730
C2961       C  0.96936233  0.62862173  0.95884194    -0.21080
C2962       C  0.99251849  0.65352097  0.98940758    -0.07640
C2963       C  0.51223428  0.64851712  0.02650894     0.13230
C2964       C  0.50853882  0.61904741  0.03136660    -0.21130
C2965       C  0.48554566  0.59393799  0.00078394    -0.07650
C2966       C  0.96531278  0.59883757  0.96417135     0.13210
C2967       C  0.93861978  0.57303035  0.93168971    -0.24480
H2968       H  0.95330575  0.63225877  0.93241046     0.14500
H2969       H  0.52449873  0.61587107  0.05873006     0.14530
C2970       C  0.53780089  0.67402222  0.06105534    -0.24430
H2971       H  0.92378924  0.58092611  0.90910754     0.04740
H2972       H  0.92231977  0.55486512  0.95844416     0.07970
H2973       H  0.94866454  0.56345539  0.90225335     0.07970
H2974       H  0.52688237  0.68389590  0.08791640     0.07950
H2975       H  0.55567215  0.69198133  0.03595308     0.07950
H2976       H  0.55124061  0.66578523  0.08654508     0.04730
loop_ 
_geom_bond_atom_site_label_1 
_geom_bond_atom_site_label_2 
_geom_bond_distance 
_geom_bond_site_symmetry_2 
_ccdc_geom_bond_type 
O1            C9   1.273   1_455  A
O1          Co21   2.021       .  S
O2           C10   1.259       .  A
O2          Co22   1.864       .  S
O3           C11   1.258   1_545  A
O3          Co23   2.009       .  S
O4           C12   1.270       .  A
O4          Co24   2.019       .  S
O5          C755   1.253       .  A
O5          Co22   2.026       .  S
O6          C756   1.261   1_545  A
O6          Co21   1.961   1_655  S
O7           C10   1.298   1_554  A
O7        Co1512   2.091       .  S
O8         C1497   1.248   1_556  A
O8          Co23   1.943       .  S
C9         O1496   1.248   1_554  A
C9          C733   1.489       .  S
C10         C650   1.447       .  S
C11         O749   1.253       .  A
C11        C1426   1.500       .  S
C12         O750   1.261       .  A
C12         C634   1.495       .  S
O13         C770   1.261       .  A
O13         Co21   2.035       .  S
O14         C771   1.270       .  A
O14         Co22   2.019       .  S
O15          C28   1.260       .  A
O15       Co1511   2.011   1_455  S
O16        C1517   1.255   1_554  A
O16         Co24   1.862   1_455  S
O17          C29   1.305       .  A
O17         Co22   2.135       .  S
O18          C28   1.235   1_554  A
O18         Co21   1.905       .  S
O19          C26   1.244       .  A
O19         Co24   1.995   1_455  S
O20          C27   1.259   1_545  A
O20         Co23   1.960       .  S
Co21         O25   2.063   1_554  S
Co22       O2257   2.028       .  S
Co23       O1503   2.011       .  S
Co23       O1513   2.107       .  S
Co24       O1495   2.091       .  S
Co24        O769   2.010   1_654  S
O25       Co2254   2.028   1_445  S
O25       Co1511   2.107   1_455  S
O25        Co768   2.010   1_446  S
C26         O757   1.261       .  A
C26        C1442   1.495       .  S
C27         O758   1.270       .  A
C27         C621   1.489       .  S
C28         C669   1.443       .  S
C29        O1504   1.255   1_556  A
C29         C717   1.479       .  S
O30          C38   1.254   1_445  A
O30         Co50   1.950       .  S
O31        C1527   1.266       .  A
O31        Co795   1.916       .  S
O32          C40   1.270       .  A
O32         Co52   2.020       .  S
O33          C41   1.263       .  A
O33         Co53   2.004       .  S
O34         C784   1.259   1_545  A
O34        Co795   1.974       .  S
O35          C41   1.262       .  A
O35         Co50   1.998       .  S
O36          C39   1.293   1_455  A
O36         Co53   2.104       .  S
O37        C2270   1.272       .  A
O37         Co52   2.029       .  S
C38        O2269   1.272       .  A
C38         C637   1.481       .  S
C39        O1519   1.266       .  A
C39        C2093   1.490       .  S
C40         O778   1.259       .  A
C40         C557   1.458       .  S
C41         C538   1.487       .  S
O42          C55   1.273   1_545  A
O42         Co50   2.003       .  S
O43          C56   1.270       .  A
O43         Co51   2.089       .  S
O44        C1545   1.238       .  A
O44         Co52   1.873       .  S
O45        C2290   1.268       .  A
O45         Co53   1.899       .  S
O46          C58   1.296       .  A
O46         Co51   2.088       .  S
O47          C57   1.278       .  A
O47        Co794   2.057       .  S
O48          C55   1.275       .  A
O48         Co53   1.996   1_565  S
O49          C56   1.242       .  A
O49         Co52   1.955       .  S
Co50        O791   2.057   1_545  S
Co50         O54   2.026   1_445  S
Co51        O775   1.916       .  S
Co51        O778   1.974       .  S
Co51       O2286   2.005       .  S
Co52       O2286   2.036       .  S
Co53         O54   2.008   1_445  S
O54       Co2283   2.005   1_565  S
O54       Co2284   2.036       .  S
C55         C570   1.493       .  S
C56         C525   1.523       .  S
C57        O1532   1.238   1_455  A
C57         C586   1.452       .  S
C58        O2277   1.268       .  A
C58         C618   1.495       .  S
O59          C67   1.268       .  A
O59         Co79   1.998   1_554  S
O60          C68   1.256       .  A
O60         Co80   2.077       .  S
O61          C69   1.256       .  A
O61         Co81   1.880   1_455  S
O62          C70   1.235       .  A
O62         Co82   1.876       .  S
O63          C69   1.299       .  A
O63         Co80   2.108       .  S
O64          C70   1.279       .  A
O64         Co79   2.055       .  S
O65          C68   1.229       .  A
O65       Co1570   1.927   1_454  S
O66          C67   1.279       .  A
O66       Co1569   2.028       .  S
C67         C461   1.504       .  S
C68         C714   1.502       .  S
C69         C445   1.470       .  S
C70         C493   1.479       .  S
O71          C84   1.258       .  A
O71         Co79   1.959       .  S
O72          C85   1.275       .  A
O72         Co80   1.927       .  S
O73        C1574   1.247   1_554  A
O73         Co81   1.949       .  S
O74          C87   1.272       .  A
O74       Co1570   2.051   1_455  S
O75          C87   1.255       .  A
O75         Co80   1.986   1_556  S
O76          C86   1.269       .  A
O76         Co79   2.018       .  S
O77          C84   1.271       .  A
O77         Co82   2.016       .  S
O78          C85   1.294       .  A
O78         Co81   2.105   1_455  S
Co79       O1571   2.071       .  S
Co80         O83   2.092   1_454  S
Co81       O1554   2.028       .  S
Co81         O83   2.003   1_554  S
Co82       O1553   1.927   1_556  S
Co82       O1562   2.051       .  S
Co82       O1571   2.054       .  S
O83       Co1567   2.071       .  S
O83       Co1570   2.054       .  S
C84         C426   1.486       .  S
C85         C509   1.500       .  S
C86        O1561   1.247   1_556  A
C86         C730   1.474       .  S
C87         C474   1.498       .  S
O88          C96   1.271       .  A
O88        Co108   1.992       .  S
O89          C97   1.259   1_455  A
O89        Co109   1.979       .  S
O90          C98   1.273       .  A
O90        Co110   2.024       .  S
O91          C99   1.261       .  A
O91        Co111   2.005       .  S
O92          C98   1.258       .  A
O92        Co109   1.955       .  S
O93          C99   1.279       .  A
O93        Co108   2.039       .  S
O94          C97   1.254       .  A
O94       Co1599   1.955       .  S
O95          C96   1.265       .  A
O95       Co1598   2.025       .  S
C96         C365   1.492       .  S
C97         C589   1.479   1_655  S
C98         C429   1.480   1_455  S
C99         C394   1.496       .  S
O100        C113   1.267       .  A
O100       Co108   2.038       .  S
O101        C114   1.251       .  A
O101       Co109   2.016       .  S
O102       C1603   1.281   1_455  A
O102       Co110   2.043       .  S
O103        C116   1.254       .  A
O103      Co1599   1.992   1_455  S
O104        C116   1.263       .  A
O104       Co109   2.000       .  S
O105        C115   1.264       .  A
O105       Co108   1.944       .  S
O106        C113   1.245       .  A
O106       Co111   1.944       .  S
O107        C114   1.245       .  A
O107       Co110   1.956       .  S
Co108      O1600   2.015       .  S
Co109       O112   2.143       .  S
Co110      O1583   2.025   1_455  S
Co110       O112   2.171       .  S
Co111      O1582   1.955       .  S
Co111      O1591   1.992       .  S
Co111      O1600   2.099       .  S
O112      Co1596   2.015   1_455  S
O112      Co1599   2.099   1_455  S
C113        C442   1.489       .  S
C114        C413   1.480       .  S
C115       O1590   1.281       .  A
C115        C602   1.503       .  S
C116        C381   1.499       .  S
O117        C125   1.274       .  A
O117       Co137   2.049       .  S
O118        C126   1.286   1_556  A
O118       Co138   2.027       .  S
O119        C127   1.251       .  A
O119       Co139   1.958       .  S
O120        C128   1.255   1_565  A
O120       Co140   1.965   1_565  S
O121        C127   1.286       .  A
O121       Co138   2.054       .  S
O122        C128   1.256       .  A
O122       Co137   1.982       .  S
O123        C126   1.260       .  A
O123       Co884   1.972       .  S
O124        C869   1.256       .  A
O124       Co139   1.971   1_554  S
C125        O868   1.256   1_545  A
C125        C701   1.484       .  S
C126        C333   1.464       .  S
C127        C477   1.488       .  S
C128        C314   1.463       .  S
O129        C142   1.271       .  A
O129       Co137   1.906       .  S
O130        C143   1.261       .  A
O130       Co138   1.877       .  S
O131        C144   1.261       .  A
O131       Co883   1.991   1_545  S
O132        C889   1.258   1_545  A
O132       Co140   1.996   1_556  S
O133        C145   1.256       .  A
O133       Co138   2.008       .  S
O134        C144   1.257       .  A
O134       Co137   1.978   1_556  S
O135        C142   1.287       .  A
O135       Co140   2.064       .  S
O136        C143   1.293       .  A
O136       Co139   2.085       .  S
Co137       O141   2.003   1_545  S
Co138       O885   1.973   1_556  S
Co139       O875   1.991       .  S
Co139       O885   2.149   1_556  S
Co140       O867   1.972   1_545  S
Co140       O141   2.146   1_545  S
O141       Co882   1.973   1_554  S
O141       Co883   2.149   1_554  S
C142        C458   1.499       .  S
C143        C301   1.485       .  S
C144        C349   1.496       .  S
C145        O876   1.258       .  A
C145        C685   1.499       .  S
O146        C154   1.269   1_545  A
O146       Co166   2.045       .  S
O147        C155   1.269       .  A
O147       Co167   1.987       .  S
O148        C156   1.280       .  A
O148       Co168   1.957       .  S
O149        C157   1.253   1_565  A
O149       Co169   1.970   1_565  S
O150        C156   1.278       .  A
O150       Co167   2.016       .  S
O151        C157   1.266       .  A
O151       Co166   2.003       .  S
O152        C155   1.277       .  A
O152       Co913   2.026       .  S
O153        C898   1.256       .  A
O153       Co168   1.987       .  S
C154        O897   1.256       .  A
C154        C573   1.497       .  S
C155        C269   1.516       .  S
C156        C378   1.498       .  S
C157        C298   1.487   1_545  S
O158        C171   1.257       .  A
O158       Co166   1.959       .  S
O159        C172   1.252       .  A
O159       Co167   1.978       .  S
O160        C173   1.279       .  A
O160       Co912   2.074   1_545  S
O161        C918   1.241       .  A
O161       Co169   1.949       .  S
O162        C174   1.261       .  A
O162       Co167   2.015       .  S
O163        C173   1.244       .  A
O163       Co166   1.943       .  S
O164        C171   1.286       .  A
O164       Co169   2.077       .  S
O165        C172   1.250       .  A
O165       Co168   1.968       .  S
Co166       O170   2.076       .  S
Co167       O914   2.213       .  S
Co168       O904   2.074       .  S
Co168       O914   1.975       .  S
Co169       O896   2.026   1_545  S
Co169       O170   1.982       .  S
O170       Co911   2.213   1_545  S
O170       Co912   1.975   1_545  S
C171        C362   1.518       .  S
C172        C317   1.465       .  S
C173        C282   1.485       .  S
C174        O905   1.241       .  A
C174        C554   1.470       .  S
O175        C183   1.221       .  A
O175       Co195   1.929   1_554  S
O176        C184   1.279       .  A
O176       Co196   1.972       .  S
O177        C185   1.265       .  A
O177       Co197   2.011       .  S
O178        C186   1.247   1_554  A
O178       Co198   2.001   1_554  S
O179        C185   1.251       .  A
O179       Co196   1.960       .  S
O180        C186   1.259       .  A
O180       Co195   2.016       .  S
O181        C184   1.283   1_556  A
O181       Co198   1.962       .  S
O182        C183   1.245       .  A
O182       Co197   2.001       .  S
C183        C666   1.434       .  S
C184        C330   1.448       .  S
C185        C250   1.489       .  S
C186        C506   1.501   1_556  S
O187        C200   1.258       .  A
O187       Co195   1.936       .  S
O188        C201   1.284       .  A
O188       Co196   2.046       .  S
O189        C202   1.264   1_554  A
O189       Co197   1.947       .  S
O190        C203   1.248       .  A
O190       Co198   2.004       .  S
O191        C203   1.278   1_554  A
O191       Co196   2.021       .  S
O192        C202   1.281       .  A
O192       Co195   2.046       .  S
O193        C200   1.287       .  A
O193       Co198   2.064       .  S
O194        C201   1.248       .  A
O194       Co197   1.943       .  S
Co195       O199   2.019       .  S
Co196       O199   2.005   1_554  S
Co197       O199   2.145   1_554  S
Co198       O199   2.064       .  S
C200        C234   1.500       .  S
C201        C490   1.471       .  S
C202        C346   1.492       .  S
C203        C653   1.469       .  S
O204        C212   1.274       .  A
O204       Co224   2.038       .  S
O205        C213   1.240       .  A
O205       Co225   1.949       .  S
O206        C214   1.259       .  A
O206       Co226   1.954       .  S
O207        C215   1.260       .  A
O207       Co227   2.020       .  S
O208        C214   1.273       .  A
O208       Co225   2.036       .  S
O209        C215   1.239       .  A
O209       Co224   1.949       .  S
O210        C213   1.261       .  A
O210       Co227   2.028       .  S
O211        C212   1.259       .  A
O211       Co226   1.973       .  S
C212        C541   1.493       .  S
C213        C266   1.499       .  S
C214        C410   1.478       .  S
C215        C253   1.494       .  S
O216        C229   1.276       .  A
O216       Co224   1.919       .  S
O217        C230   1.266       .  A
O217       Co225   1.981       .  S
O218        C231   1.269       .  A
O218       Co226   2.032       .  S
O219        C232   1.293       .  A
O219       Co227   2.045       .  S
O220        C232   1.280       .  A
O220       Co225   1.966       .  S
O221        C231   1.266       .  A
O221       Co224   1.982       .  S
O222        C229   1.300       .  A
O222       Co227   2.080       .  S
O223        C230   1.264       .  A
O223       Co226   1.999       .  S
Co224       O228   1.961       .  S
Co225       O228   1.994       .  S
Co226       O228   2.068       .  S
Co227       O228   2.245       .  S
C229        C397   1.491       .  S
C230        C237   1.492       .  S
C231        C285   1.502       .  S
C232        C522   1.523       .  S
C233        C234   1.407       .  A
C233        C238   1.405       .  A
C233        H240   1.084       .  S
C234        C235   1.411       .  A
C235        C236   1.408       .  A
C235        C242   1.487       .  S
C236        C237   1.404       .  A
C236        H241   1.084       .  S
C237        C238   1.420       .  A
C238        C239   1.508       .  S
C239        H243   1.111       .  S
C239        H244   1.107       .  S
C239        H245   1.109       .  S
C242        H246   1.105       .  S
C242        H247   1.109       .  S
C242        H248   1.111       .  S
C249        C250   1.400       .  A
C249        C254   1.406       .  A
C249        H256   1.084       .  S
C250        C251   1.422       .  A
C251        C252   1.406       .  A
C251        C258   1.510       .  S
C252        C253   1.403       .  A
C252        H257   1.084       .  S
C253        C254   1.424       .  A
C254        C255   1.508       .  S
C255        H259   1.111       .  S
C255        H260   1.110       .  S
C255        H261   1.108       .  S
C258        H262   1.110       .  S
C258        H263   1.110       .  S
C258        H264   1.111       .  S
C265        C266   1.397       .  A
C265        C270   1.407       .  A
C265        H272   1.084       .  S
C266        C267   1.419       .  A
C267        C268   1.411       .  A
C267        C274   1.502       .  S
C268        C269   1.407       .  A
C268        H273   1.083       .  S
C269        C270   1.422       .  A
C270        C271   1.479       .  S
C271        H275   1.111       .  S
C271        H276   1.090       .  S
C271        H277   1.101       .  S
C274        H278   1.094       .  S
C274        H279   1.110       .  S
C274        H280   1.111       .  S
C281        C282   1.410       .  A
C281        C286   1.415       .  A
C281        H288   1.081       .  S
C282        C283   1.410       .  A
C283        C284   1.407       .  A
C283        C290   1.507       .  S
C284        C285   1.409       .  A
C284        H289   1.074       .  S
C285        C286   1.415       .  A
C286        C287   1.503       .  S
C287        H291   1.111       .  S
C287        H292   1.109       .  S
C287        H293   1.111       .  S
C290        H294   1.111       .  S
C290        H295   1.110       .  S
C290        H296   1.111       .  S
C297        C298   1.405   1_545  A
C297        C302   1.401       .  A
C297        H304   1.084       .  S
C298       C1043   1.420       .  A
C299        C300   1.403       .  A
C299       C1042   1.420       .  A
C299        C306   1.510       .  S
C300        C301   1.405       .  A
C300        H305   1.084       .  S
C301       C1046   1.418       .  A
C302       C1045   1.418   1_545  A
C302        C303   1.508       .  S
C303        H307   1.111       .  S
C303        H308   1.109       .  S
C303        H309   1.110       .  S
C306        H310   1.110       .  S
C306        H311   1.110       .  S
C306        H312   1.111       .  S
C313        C318   1.401       .  A
C313       C1058   1.396       .  A
C313        H320   1.084       .  S
C314        C315   1.415       .  A
C314       C1057   1.396   1_545  A
C315        C316   1.401       .  A
C315        C322   1.508       .  S
C316       C1061   1.397       .  A
C316        H321   1.084       .  S
C317        C318   1.417       .  A
C317       C1060   1.397       .  A
C318        C319   1.508       .  S
C319        H323   1.111       .  S
C319        H324   1.110       .  S
C319        H325   1.109       .  S
C322        H326   1.109       .  S
C322        H327   1.111       .  S
C322        H328   1.111       .  S
C329        C330   1.395       .  A
C329        C334   1.391       .  A
C329        H336   1.083       .  S
C330        C331   1.403       .  A
C331        C332   1.397       .  A
C331        C338   1.499       .  S
C332        C333   1.403       .  A
C332        H337   1.082       .  S
C333        C334   1.404       .  A
C334        C335   1.487       .  S
C335        H339   1.111       .  S
C335        H340   1.089       .  S
C335        H341   1.110       .  S
C338        H342   1.111       .  S
C338        H343   1.101   1_554  S
C338        H344   1.111       .  S
C345        C346   1.411       .  A
C345        C350   1.407       .  A
C345        H352   1.083       .  S
C346        C347   1.415       .  A
C347        C348   1.404       .  A
C347        C354   1.508       .  S
C348        C349   1.411       .  A
C348        H353   1.084       .  S
C349        C350   1.415       .  A
C350        C351   1.507       .  S
C351        H355   1.111       .  S
C351        H356   1.110       .  S
C351        H357   1.103       .  S
C354        H358   1.110       .  S
C354        H359   1.110       .  S
C354        H360   1.110       .  S
C361        C362   1.420       .  A
C361        C366   1.414       .  A
C361        H368   1.084       .  S
C362        C363   1.414       .  A
C363        C364   1.406       .  A
C363        C370   1.480       .  S
C364        C365   1.402       .  A
C364        H369   1.085       .  S
C365        C366   1.408       .  A
C366        C367   1.507       .  S
C367        H371   1.111       .  S
C367        H372   1.105       .  S
C367        H373   1.110       .  S
C370        H374   1.105       .  S
C370        H375   1.109       .  S
C370        H376   1.112       .  S
C377        C378   1.396       .  A
C377        C382   1.410       .  A
C377        H384   1.079       .  S
C378        C379   1.425       .  A
C379        C380   1.403       .  A
C379        C386   1.503       .  S
C380        C381   1.396       .  A
C380        H385   1.085       .  S
C381        C382   1.428       .  A
C382        C383   1.500       .  S
C383        H387   1.111       .  S
C383        H388   1.094       .  S
C383        H389   1.110       .  S
C386        H390   1.103       .  S
C386        H391   1.111       .  S
C386        H392   1.108       .  S
C393        C394   1.406       .  A
C393        C398   1.401       .  A
C393        H400   1.084       .  S
C394        C395   1.417       .  A
C395        C396   1.417       .  A
C395        C402   1.507       .  S
C396        C397   1.410       .  A
C396        H401   1.082       .  S
C397        C398   1.415       .  A
C398        C399   1.509       .  S
C399        H403   1.111       .  S
C399        H404   1.109       .  S
C399        H405   1.107       .  S
C402        H406   1.105       .  S
C402        H407   1.110       .  S
C402        H408   1.111       .  S
C409        C410   1.404       .  A
C409        C414   1.411       .  A
C409        H416   1.083       .  S
C410        C411   1.414       .  A
C411        C412   1.394       .  A
C411        C418   1.511       .  S
C412        C413   1.401       .  A
C412        H417   1.084       .  S
C413        C414   1.417       .  A
C414        C415   1.505       .  S
C415        H419   1.111       .  S
C415        H420   1.110       .  S
C415        H421   1.111       .  S
C418        H422   1.110       .  S
C418        H423   1.107       .  S
C418        H424   1.103       .  S
C425        C430   1.409       .  A
C425       C1914   1.405   1_455  A
C425        H432   1.084       .  S
C426        C427   1.421       .  A
C426       C1913   1.405       .  A
C427        C428   1.400       .  A
C427        C434   1.510       .  S
C428       C1917   1.399       .  A
C428        H433   1.085       .  S
C429        C430   1.417   1_655  A
C429       C1916   1.399       .  A
C430        C431   1.507       .  S
C431        H435   1.111       .  S
C431        H436   1.110       .  S
C431        H437   1.111       .  S
C434        H438   1.110       .  S
C434        H439   1.109       .  S
C434        H440   1.111       .  S
C441        C446   1.401       .  A
C441       C1930   1.414       .  A
C441        H448   1.084       .  S
C442        C443   1.416       .  A
C442       C1929   1.414       .  A
C443        C444   1.406       .  A
C443        C450   1.507       .  S
C444       C1933   1.406       .  A
C444        H449   1.085       .  S
C445        C446   1.403       .  A
C445       C1932   1.406   1_455  A
C446        C447   1.507       .  S
C447        H451   1.111       .  S
C447        H452   1.110       .  S
C447        H453   1.111       .  S
C450        H454   1.110       .  S
C450        H455   1.110       .  S
C450        H456   1.111       .  S
C457        C458   1.398       .  A
C457        C462   1.405       .  A
C457        H464   1.084       .  S
C458        C459   1.425       .  A
C459        C460   1.409       .  A
C459        C466   1.509       .  S
C460        C461   1.405       .  A
C460        H465   1.084       .  S
C461        C462   1.419       .  A
C462        C463   1.483       .  S
C463        H467   1.111       .  S
C463        H468   1.096       .  S
C463        H469   1.108       .  S
C466        H470   1.109       .  S
C466        H471   1.110       .  S
C466        H472   1.111       .  S
C473        C474   1.404   1_554  A
C473        C478   1.394       .  A
C473        H480   1.072       .  S
C474        C475   1.412       .  A
C475        C476   1.422       .  A
C475        C482   1.503       .  S
C476        C477   1.413       .  A
C476        H481   1.083       .  S
C477        C478   1.412   1_556  A
C478        C479   1.514       .  S
C479        H483   1.110       .  S
C479        H484   1.110       .  S
C479        H485   1.108       .  S
C482        H486   1.110       .  S
C482        H487   1.111       .  S
C482        H488   1.111       .  S
C489        C490   1.387       .  A
C489        C494   1.397       .  A
C489        H496   1.084       .  S
C490        C491   1.426   1_554  A
C491        C492   1.405       .  A
C491        C498   1.505       .  S
C492        C493   1.394       .  A
C492        H497   1.084       .  S
C493        C494   1.432   1_556  A
C494        C495   1.512       .  S
C495        H499   1.111       .  S
C495        H500   1.086       .  S
C495        H501   1.094       .  S
C498        H502   1.111       .  S
C498        H503   1.099       .  S
C498        H504   1.109       .  S
C505        C506   1.402   1_556  A
C505        C510   1.408       .  A
C505        H512   1.084       .  S
C506        C507   1.423       .  A
C507        C508   1.413       .  A
C507        C514   1.509       .  S
C508        C509   1.404       .  A
C508        H513   1.084       .  S
C509        C510   1.426   1_554  A
C510        C511   1.511       .  S
C511        H515   1.111       .  S
C511        H516   1.103       .  S
C511        H517   1.104       .  S
C514        H518   1.107       .  S
C514        H519   1.111       .  S
C514        H520   1.111       .  S
C521        C522   1.419       .  A
C521        C526   1.429       .  A
C521        H528   1.083       .  S
C522        C523   1.421       .  A
C523        C524   1.407       .  A
C523        C530   1.509       .  S
C524        C525   1.412       .  A
C524        H529   1.083       .  S
C525        C526   1.417       .  A
C526        C527   1.502       .  S
C527        H531   1.111       .  S
C527        H532   1.103       .  S
C527        H533   1.110       .  S
C530        H534   1.108       .  S
C530        H535   1.110       .  S
C530        H536   1.111       .  S
C537        C538   1.404       .  A
C537        C542   1.412       .  A
C537        H544   1.084       .  S
C538        C539   1.414       .  A
C539        C540   1.404       .  A
C539        C546   1.505       .  S
C540        C541   1.403       .  A
C540        H545   1.079       .  S
C541        C542   1.421       .  A
C542        C543   1.506       .  S
C543        H547   1.110       .  S
C543        H548   1.111       .  S
C543        H549   1.107       .  S
C546        H550   1.106       .  S
C546        H551   1.110       .  S
C546        H552   1.104       .  S
C553        C554   1.414       .  A
C553        C558   1.414       .  A
C553        H560   1.084       .  S
C554        C555   1.422       .  A
C555        C556   1.370       .  A
C555        C562   1.510       .  S
C556        C557   1.380       .  A
C556        H561   1.074       .  S
C557        C558   1.408       .  A
C558        C559   1.502       .  S
C559        H563   1.110       .  S
C559        H564   1.109       .  S
C559       H1309   1.110       .  S
C562        H566   1.105       .  S
C562        H568   1.108       .  S
C562       H1311   1.087       .  S
H565       C1303   1.110   1_545  S
H567       C1306   1.087       .  S
C569        C570   1.414   1_545  A
C569        C574   1.422       .  A
C569        H576   1.082       .  S
C570        C571   1.416       .  A
C571        C572   1.391       .  A
C571        C578   1.512       .  S
C572        C573   1.397       .  A
C572        H577   1.064       .  S
C573        C574   1.416   1_565  A
C574        C575   1.505       .  S
C575        H580   1.108       .  S
C575       H1323   1.111       .  S
C575       H1325   1.111       .  S
C578        H582   1.108       .  S
C578        H584   1.105       .  S
C578       H1327   1.096       .  S
H579       C1319   1.111       .  S
H581       C1319   1.111       .  S
H583       C1322   1.096       .  S
C585        C586   1.401       .  A
C585        C590   1.393       .  A
C585        H592   1.081       .  S
C586       C2075   1.409   1_455  A
C587        C588   1.403       .  A
C587       C2074   1.409       .  A
C587        C594   1.507       .  S
C588       C2077   1.411       .  A
C588        H593   1.083       .  S
C589        C590   1.420       .  A
C589       C2076   1.411   1_455  A
C590        C591   1.513       .  S
C591        H595   1.111       .  S
C591        H596   1.109       .  S
C591        H597   1.110       .  S
C594        H598   1.110       .  S
C594        H599   1.110       .  S
C594        H600   1.111       .  S
C601        C606   1.411       .  A
C601       C2090   1.415   1_455  A
C601        H608   1.083       .  S
C602        C603   1.419       .  A
C602       C2089   1.415       .  A
C603        C604   1.409       .  A
C603        C610   1.508       .  S
C604        C605   1.403       .  A
C604        H609   1.075       .  S
C605       C1527   1.490       .  S
C605       C2094   1.406       .  A
C606       C2093   1.406   1_455  A
C606        C607   1.505       .  S
C607        H611   1.105       .  S
C607        H612   1.110       .  S
C607        H613   1.111       .  S
C610        H614   1.110       .  S
C610        H615   1.110       .  S
C610        H616   1.111       .  S
C617        C622   1.404       .  A
C617       C1362   1.408   1_565  A
C617        H624   1.084       .  S
C618       C1361   1.408       .  A
C618       C2107   1.421       .  A
C619        C620   1.405       .  A
C619       C2106   1.421       .  A
C619        C626   1.509       .  S
C620       C2853   1.405       .  A
C620        H625   1.084       .  S
C621        C622   1.418       .  A
C621       C2852   1.405   1_565  A
C622        C623   1.508       .  S
C623        H627   1.111       .  S
C623        H628   1.108       .  S
C623       H1373   1.110       .  S
C626        H631   1.109       .  S
C626        H632   1.111       .  S
C626       H1374   1.110       .  S
H629       C1367   1.110       .  S
H630       C1370   1.110       .  S
C633        C638   1.402       .  A
C633       C2866   1.407   1_545  A
C633        H640   1.084       .  S
C634        C635   1.422       .  A
C634       C2865   1.407       .  A
C635        C636   1.406       .  A
C635        C642   1.506       .  S
C636       C1381   1.401       .  A
C636        H641   1.084       .  S
C637       C1380   1.401       .  A
C637       C2126   1.417   1_565  A
C638       C2125   1.417   1_545  A
C638        C639   1.511       .  S
C639        H643   1.111       .  S
C639        H644   1.109       .  S
C639        H645   1.107       .  S
C642        H647   1.105       .  S
C642        H648   1.111       .  S
C642       H1390   1.109       .  S
H646       C1386   1.109       .  S
C649        C650   1.399       .  A
C649        C654   1.393       .  A
C649        H656   1.086       .  S
C650        C651   1.395   1_556  A
C651        C652   1.392       .  A
C651        C658   1.502       .  S
C652        C653   1.413   1_554  A
C652        H657   1.081       .  S
C653        C654   1.412       .  A
C654        C655   1.496       .  S
C655        H659   1.112       .  S
C655        H660   1.109       .  S
C655        H661   1.102       .  S
C658        H662   1.109       .  S
C658        H663   1.104       .  S
C658        H664   1.111       .  S
C665        C666   1.408   1_556  A
C665        C670   1.391       .  A
C665        H672   1.083       .  S
C666        C667   1.394       .  A
C667        C668   1.385       .  A
C667        C674   1.507       .  S
C668        C669   1.411   1_554  A
C668        H673   1.085       .  S
C669        C670   1.399       .  A
C670        C671   1.506       .  S
C671        H675   1.111       .  S
C671        H676   1.110       .  S
C671        H677   1.110       .  S
C674        H678   1.110       .  S
C674        H679   1.111       .  S
C674        H680   1.111       .  S
C681        C682   1.405       .  A
C681        C686   1.407       .  A
C681        H688   1.085   1_556  S
C682        C755   1.500       .  S
C682       C1427   1.416       .  A
C683        C684   1.417       .  A
C683       C1426   1.416       .  A
C683        C690   1.504       .  S
C684       C1429   1.409       .  A
C684        H689   1.084       .  S
C685        C686   1.421       .  A
C685       C1428   1.409       .  A
C686        C687   1.509   1_556  S
C687        H691   1.111       .  S
C687        H692   1.102       .  S
C687        H693   1.111       .  S
C690        H694   1.109       .  S
C690        H695   1.110   1_565  S
C690        H696   1.111       .  S
C697        C698   1.408       .  A
C697        C702   1.417       .  A
C697        H704   1.084       .  S
C698        C770   1.495       .  S
C698       C1443   1.425       .  A
C699        C700   1.403       .  A
C699       C1442   1.425       .  A
C699        C706   1.511   1_554  S
C700       C1445   1.398       .  A
C700        H705   1.084   1_554  S
C701        C702   1.414       .  A
C701       C1444   1.398       .  A
C702        C703   1.505       .  S
C703        H707   1.111       .  S
C703        H708   1.111       .  S
C703        H709   1.110   1_545  S
C706        H710   1.109       .  S
C706        H711   1.100       .  S
C706        H712   1.111       .  S
C713        C714   1.413       .  A
C713        C718   1.427   1_554  A
C713        H720   1.078       .  S
C714       C2203   1.410   1_455  A
C715        C716   1.389       .  A
C715       C2202   1.410       .  A
C715        C722   1.501       .  S
C716        C717   1.396   1_554  A
C716        H721   1.084   1_554  S
C717       C2206   1.423       .  A
C718       C2205   1.423       .  A
C718        C719   1.503       .  S
C719        H723   1.110       .  S
C719        H724   1.111   1_556  S
C719        H725   1.110       .  S
C722        H726   1.109       .  S
C722        H727   1.109       .  S
C722        H728   1.109       .  S
C729        C730   1.398       .  A
C729        C734   1.406       .  A
C729        H736   1.085       .  S
C730       C2219   1.419   1_556  A
C731        C732   1.396       .  A
C731       C2218   1.419   1_454  A
C731        C738   1.508       .  S
C732        C733   1.400   1_455  A
C732        H737   1.084       .  S
C733       C2222   1.427   1_554  A
C734       C2221   1.427   1_556  A
C734        C735   1.508       .  S
C735        H739   1.111       .  S
C735        H740   1.107       .  S
C735        H741   1.109       .  S
C738        H742   1.105       .  S
C738        H743   1.103       .  S
C738        H744   1.111       .  S
O745        C753   1.273   1_455  A
O745       Co765   2.021       .  S
O746        C754   1.259       .  A
O746       Co766   1.865       .  S
O747        C755   1.258       .  A
O747       Co767   2.009       .  S
O748        C756   1.270       .  A
O748       Co768   2.019       .  S
O749       Co766   2.026       .  S
O750       Co765   1.961   1_655  S
O751        C754   1.298   1_554  A
O751      Co2256   2.091       .  S
O752       C2241   1.248   1_556  A
O752       Co767   1.943       .  S
C753       O2240   1.248   1_554  A
C753       C1477   1.489       .  S
C754       C1394   1.447       .  S
C756       C1378   1.495       .  S
O757       Co765   2.035       .  S
O758       Co766   2.019       .  S
O759        C772   1.260       .  A
O759      Co2255   2.011   1_455  S
O760       C2261   1.255   1_554  A
O760       Co768   1.862   1_455  S
O761        C773   1.305       .  A
O761       Co766   2.135       .  S
O762        C772   1.235   1_554  A
O762       Co765   1.905       .  S
O763        C770   1.244   1_565  A
O763       Co768   1.995   1_455  S
O764        C771   1.259       .  A
O764       Co767   1.960       .  S
Co765       O769   2.063   1_554  S
Co766      O1513   2.028   1_565  S
Co767      O2247   2.011       .  S
Co767      O2257   2.107       .  S
Co768      O2239   2.091       .  S
O769      Co1510   2.028   1_455  S
O769      Co2255   2.107   1_455  S
C771       C1365   1.489       .  S
C772       C1413   1.443       .  S
C773       O2248   1.255   1_556  A
C773       C1461   1.479       .  S
O774        C782   1.254   1_455  A
O774       Co794   1.950       .  S
O775       C2271   1.266       .  A
O776        C784   1.270       .  A
O776       Co796   2.020       .  S
O777        C785   1.263       .  A
O777       Co797   2.004       .  S
O779        C785   1.262       .  A
O779       Co794   1.998       .  S
O780        C783   1.293   1_455  A
O780       Co797   2.104       .  S
O781       C1526   1.272       .  A
O781       Co796   2.029       .  S
C782       O1525   1.272       .  A
C782       C1381   1.481       .  S
C783       O2263   1.266       .  A
C783       C2837   1.490       .  S
C784       C1301   1.458       .  S
C785       C1282   1.487       .  S
O786        C799   1.273       .  A
O786       Co794   2.003       .  S
O787        C800   1.270       .  A
O787       Co795   2.089   1_565  S
O788       C2289   1.238       .  A
O788       Co796   1.873       .  S
O789       C1546   1.268       .  A
O789       Co797   1.899       .  S
O790        C802   1.296   1_565  A
O790       Co795   2.088   1_565  S
O791        C801   1.278       .  A
O792        C799   1.275       .  A
O792       Co797   1.996       .  S
O793        C800   1.242       .  A
O793       Co796   1.955       .  S
Co794       O798   2.026   1_455  S
Co795      O1542   2.005   1_545  S
Co796      O1542   2.036       .  S
Co797       O798   2.008   1_455  S
O798      Co1539   2.005       .  S
O798      Co1540   2.036       .  S
C799       C1314   1.493       .  S
C800       C1269   1.523       .  S
C801       O2276   1.238   1_455  A
C801       C1330   1.452       .  S
C802       O1533   1.268       .  A
C802       C1362   1.495       .  S
O803        C811   1.268       .  A
O803       Co823   1.998   1_554  S
O804        C812   1.256       .  A
O804       Co824   2.077       .  S
O805        C813   1.256       .  A
O805       Co825   1.880   1_455  S
O806        C814   1.235       .  A
O806       Co826   1.876       .  S
O807        C813   1.299       .  A
O807       Co824   2.108       .  S
O808        C814   1.279       .  A
O808       Co823   2.055       .  S
O809        C812   1.229       .  A
O809      Co2314   1.927   1_454  S
O810        C811   1.279       .  A
O810      Co2313   2.028       .  S
C811       C1205   1.504       .  S
C812       C1458   1.502       .  S
C813       C1189   1.470       .  S
C814       C1237   1.479       .  S
O815        C828   1.258       .  A
O815       Co823   1.959       .  S
O816        C829   1.275       .  A
O816       Co824   1.927       .  S
O817       C2318   1.247   1_554  A
O817       Co825   1.949       .  S
O818        C831   1.272       .  A
O818      Co2314   2.051   1_455  S
O819        C831   1.255       .  A
O819       Co824   1.986   1_556  S
O820        C830   1.269       .  A
O820       Co823   2.018       .  S
O821        C828   1.271       .  A
O821       Co826   2.016       .  S
O822        C829   1.294       .  A
O822       Co825   2.105   1_455  S
Co823      O2315   2.071       .  S
Co824       O827   2.092   1_454  S
Co825      O2298   2.028       .  S
Co825       O827   2.003   1_554  S
Co826      O2297   1.927   1_556  S
Co826      O2306   2.051       .  S
Co826      O2315   2.054       .  S
O827      Co2311   2.071       .  S
O827      Co2314   2.054       .  S
C828       C1170   1.486       .  S
C829       C1253   1.500       .  S
C830       O2305   1.247   1_556  A
C830       C1474   1.474       .  S
C831       C1218   1.498       .  S
O832        C840   1.271       .  A
O832       Co852   1.992       .  S
O833        C841   1.259   1_455  A
O833       Co853   1.979       .  S
O834        C842   1.273       .  A
O834       Co854   2.024       .  S
O835        C843   1.261       .  A
O835       Co855   2.005       .  S
O836        C842   1.258       .  A
O836       Co853   1.955       .  S
O837        C843   1.279       .  A
O837       Co852   2.039       .  S
O838        C841   1.254       .  A
O838      Co2343   1.955       .  S
O839        C840   1.265       .  A
O839      Co2342   2.025       .  S
C840       C1109   1.492       .  S
C841       C1333   1.479   1_655  S
C842       C1173   1.480   1_455  S
C843       C1138   1.496       .  S
O844        C857   1.267       .  A
O844       Co852   2.038       .  S
O845        C858   1.251       .  A
O845       Co853   2.016       .  S
O846       C2347   1.281   1_455  A
O846       Co854   2.043       .  S
O847        C860   1.254       .  A
O847      Co2343   1.992   1_455  S
O848        C860   1.263       .  A
O848       Co853   2.000       .  S
O849        C859   1.264       .  A
O849       Co852   1.944       .  S
O850        C857   1.245       .  A
O850       Co855   1.944       .  S
O851        C858   1.245       .  A
O851       Co854   1.956       .  S
Co852      O2344   2.015       .  S
Co853       O856   2.143       .  S
Co854      O2327   2.025   1_455  S
Co854       O856   2.171       .  S
Co855      O2326   1.955       .  S
Co855      O2335   1.992       .  S
Co855      O2344   2.099       .  S
O856      Co2340   2.015   1_455  S
O856      Co2343   2.099   1_455  S
C857       C1186   1.489       .  S
C858       C1157   1.480       .  S
C859       O2334   1.281       .  A
C859       C1346   1.503       .  S
C860       C1125   1.499       .  S
O861        C869   1.274       .  A
O861       Co881   2.049       .  S
O862        C870   1.286   1_556  A
O862       Co882   2.027       .  S
O863        C871   1.251       .  A
O863       Co883   1.958       .  S
O864        C872   1.255       .  A
O864       Co884   1.965       .  S
O865        C871   1.286       .  A
O865       Co882   2.054       .  S
O866        C872   1.256       .  A
O866       Co881   1.982       .  S
O867        C870   1.260       .  A
O868       Co883   1.971   1_554  S
C869       C1445   1.484       .  S
C870       C1077   1.464       .  S
C871       C1221   1.488       .  S
C872       C1058   1.463       .  S
O873        C886   1.271       .  A
O873       Co881   1.906       .  S
O874        C887   1.261       .  A
O874       Co882   1.878       .  S
O875        C888   1.261       .  A
O876       Co884   1.996   1_556  S
O877        C889   1.256       .  A
O877       Co882   2.008       .  S
O878        C888   1.257       .  A
O878       Co881   1.978   1_556  S
O879        C886   1.287       .  A
O879       Co884   2.064       .  S
O880        C887   1.293       .  A
O880       Co883   2.085       .  S
Co881       O885   2.003       .  S
Co884       O885   2.146       .  S
C886       C1202   1.499       .  S
C887       C1045   1.485       .  S
C888       C1093   1.496       .  S
C889       C1429   1.499       .  S
O890        C898   1.269       .  A
O890       Co910   2.045       .  S
O891        C899   1.269       .  A
O891       Co911   1.987       .  S
O892        C900   1.280       .  A
O892       Co912   1.958       .  S
O893        C901   1.253       .  A
O893       Co913   1.970       .  S
O894        C900   1.278       .  A
O894       Co911   2.016       .  S
O895        C901   1.266       .  A
O895       Co910   2.003       .  S
O896        C899   1.277       .  A
O897       Co912   1.987       .  S
C898       C1317   1.497       .  S
C899       C1013   1.516       .  S
C900       C1122   1.498       .  S
C901       C1042   1.487       .  S
O902        C915   1.257       .  A
O902       Co910   1.959       .  S
O903        C916   1.252   1_565  A
O903       Co911   1.978       .  S
O904        C917   1.279       .  A
O905       Co913   1.949       .  S
O906        C918   1.261   1_565  A
O906       Co911   2.015       .  S
O907        C917   1.244       .  A
O907       Co910   1.943       .  S
O908        C915   1.286       .  A
O908       Co913   2.077       .  S
O909        C916   1.250       .  A
O909       Co912   1.968   1_545  S
Co910       O914   2.076       .  S
Co913       O914   1.982       .  S
C915       C1106   1.518       .  S
C916       C1061   1.465       .  S
C917       C1026   1.485       .  S
C918       C1298   1.470       .  S
O919        C927   1.221       .  A
O919       Co939   1.929   1_554  S
O920        C928   1.279       .  A
O920       Co940   1.972       .  S
O921        C929   1.265       .  A
O921       Co941   2.011       .  S
O922        C930   1.247   1_554  A
O922       Co942   2.001   1_554  S
O923        C929   1.251       .  A
O923       Co940   1.960       .  S
O924        C930   1.259       .  A
O924       Co939   2.016       .  S
O925        C928   1.283   1_556  A
O925       Co942   1.962       .  S
O926        C927   1.245       .  A
O926       Co941   2.001       .  S
C927       C1410   1.434       .  S
C928       C1074   1.448       .  S
C929        C994   1.489       .  S
C930       C1250   1.501   1_556  S
O931        C944   1.258       .  A
O931       Co939   1.936       .  S
O932        C945   1.284       .  A
O932       Co940   2.046       .  S
O933        C946   1.264   1_554  A
O933       Co941   1.947       .  S
O934        C947   1.248       .  A
O934       Co942   2.005       .  S
O935        C947   1.278   1_554  A
O935       Co940   2.021       .  S
O936        C946   1.281       .  A
O936       Co939   2.046       .  S
O937        C944   1.287       .  A
O937       Co942   2.064       .  S
O938        C945   1.248       .  A
O938       Co941   1.943       .  S
Co939       O943   2.019       .  S
Co940       O943   2.005   1_554  S
Co941       O943   2.145   1_554  S
Co942       O943   2.064       .  S
C944        C978   1.500       .  S
C945       C1234   1.471       .  S
C946       C1090   1.492       .  S
C947       C1397   1.469       .  S
O948        C956   1.274       .  A
O948       Co968   2.038       .  S
O949        C957   1.240       .  A
O949       Co969   1.949       .  S
O950        C958   1.259       .  A
O950       Co970   1.954       .  S
O951        C959   1.260       .  A
O951       Co971   2.020       .  S
O952        C958   1.273       .  A
O952       Co969   2.036       .  S
O953        C959   1.239       .  A
O953       Co968   1.949       .  S
O954        C957   1.261       .  A
O954       Co971   2.028       .  S
O955        C956   1.259       .  A
O955       Co970   1.973       .  S
C956       C1285   1.493       .  S
C957       C1010   1.499       .  S
C958       C1154   1.478       .  S
C959        C997   1.494       .  S
O960        C973   1.276       .  A
O960       Co968   1.919       .  S
O961        C974   1.266       .  A
O961       Co969   1.981       .  S
O962        C975   1.269       .  A
O962       Co970   2.032       .  S
O963        C976   1.293       .  A
O963       Co971   2.045       .  S
O964        C976   1.280       .  A
O964       Co969   1.966       .  S
O965        C975   1.266       .  A
O965       Co968   1.982       .  S
O966        C973   1.300       .  A
O966       Co971   2.080       .  S
O967        C974   1.264       .  A
O967       Co970   1.999       .  S
Co968       O972   1.961       .  S
Co969       O972   1.994       .  S
Co970       O972   2.068       .  S
Co971       O972   2.245       .  S
C973       C1141   1.491       .  S
C974        C981   1.492       .  S
C975       C1029   1.502       .  S
C976       C1266   1.523       .  S
C977        C978   1.407       .  A
C977        C982   1.405       .  A
C977        H984   1.084       .  S
C978        C979   1.411       .  A
C979        C980   1.408       .  A
C979        C986   1.487       .  S
C980        C981   1.404       .  A
C980        H985   1.084       .  S
C981        C982   1.420       .  A
C982        C983   1.508       .  S
C983        H987   1.111       .  S
C983        H988   1.107       .  S
C983        H989   1.109       .  S
C986        H990   1.105       .  S
C986        H991   1.109       .  S
C986        H992   1.111       .  S
C993        C994   1.400       .  A
C993        C998   1.406       .  A
C993       H1000   1.084       .  S
C994        C995   1.422       .  A
C995        C996   1.406       .  A
C995       C1002   1.510       .  S
C996        C997   1.403       .  A
C996       H1001   1.084       .  S
C997        C998   1.424       .  A
C998        C999   1.508       .  S
C999       H1003   1.111       .  S
C999       H1004   1.110       .  S
C999       H1005   1.108       .  S
C1002      H1006   1.110       .  S
C1002      H1007   1.110       .  S
C1002      H1008   1.111       .  S
C1009      C1010   1.397       .  A
C1009      C1014   1.407       .  A
C1009      H1016   1.084       .  S
C1010      C1011   1.419       .  A
C1011      C1012   1.411       .  A
C1011      C1018   1.502       .  S
C1012      C1013   1.407       .  A
C1012      H1017   1.083       .  S
C1013      C1014   1.422       .  A
C1014      C1015   1.479       .  S
C1015      H1019   1.111       .  S
C1015      H1020   1.090       .  S
C1015      H1021   1.101       .  S
C1018      H1022   1.094       .  S
C1018      H1023   1.110       .  S
C1018      H1024   1.111       .  S
C1025      C1026   1.410       .  A
C1025      C1030   1.415       .  A
C1025      H1032   1.081       .  S
C1026      C1027   1.410       .  A
C1027      C1028   1.407       .  A
C1027      C1034   1.507       .  S
C1028      C1029   1.409       .  A
C1028      H1033   1.074       .  S
C1029      C1030   1.415       .  A
C1030      C1031   1.503       .  S
C1031      H1035   1.111       .  S
C1031      H1036   1.109       .  S
C1031      H1037   1.111       .  S
C1034      H1038   1.111       .  S
C1034      H1039   1.110       .  S
C1034      H1040   1.111       .  S
C1041      C1042   1.405       .  A
C1041      C1046   1.401       .  A
C1041      H1048   1.084       .  S
C1043      C1044   1.403       .  A
C1043      C1050   1.510       .  S
C1044      C1045   1.405       .  A
C1044      H1049   1.084       .  S
C1046      C1047   1.508       .  S
C1047      H1051   1.111       .  S
C1047      H1052   1.109       .  S
C1047      H1053   1.110       .  S
C1050      H1054   1.110       .  S
C1050      H1055   1.110       .  S
C1050      H1056   1.111       .  S
C1057      C1062   1.401       .  A
C1057      H1064   1.084       .  S
C1058      C1059   1.415       .  A
C1059      C1060   1.401       .  A
C1059      C1066   1.508       .  S
C1060      H1065   1.084       .  S
C1061      C1062   1.417   1_545  A
C1062      C1063   1.508       .  S
C1063      H1067   1.111       .  S
C1063      H1068   1.110       .  S
C1063      H1069   1.109       .  S
C1066      H1070   1.109       .  S
C1066      H1071   1.111       .  S
C1066      H1072   1.111       .  S
C1073      C1074   1.395       .  A
C1073      C1078   1.391       .  A
C1073      H1080   1.083       .  S
C1074      C1075   1.403       .  A
C1075      C1076   1.397       .  A
C1075      C1082   1.499       .  S
C1076      C1077   1.403       .  A
C1076      H1081   1.082       .  S
C1077      C1078   1.404       .  A
C1078      C1079   1.487       .  S
C1079      H1083   1.111       .  S
C1079      H1084   1.089       .  S
C1079      H1085   1.110       .  S
C1082      H1086   1.111       .  S
C1082      H1087   1.101   1_554  S
C1082      H1088   1.111       .  S
C1089      C1090   1.411       .  A
C1089      C1094   1.407       .  A
C1089      H1096   1.083       .  S
C1090      C1091   1.415       .  A
C1091      C1092   1.404       .  A
C1091      C1098   1.508       .  S
C1092      C1093   1.411       .  A
C1092      H1097   1.084       .  S
C1093      C1094   1.415       .  A
C1094      C1095   1.507       .  S
C1095      H1099   1.111       .  S
C1095      H1100   1.110       .  S
C1095      H1101   1.103       .  S
C1098      H1102   1.110       .  S
C1098      H1103   1.110       .  S
C1098      H1104   1.110       .  S
C1105      C1106   1.420       .  A
C1105      C1110   1.414       .  A
C1105      H1112   1.084       .  S
C1106      C1107   1.414       .  A
C1107      C1108   1.406       .  A
C1107      C1114   1.480       .  S
C1108      C1109   1.402       .  A
C1108      H1113   1.085       .  S
C1109      C1110   1.408       .  A
C1110      C1111   1.507       .  S
C1111      H1115   1.111       .  S
C1111      H1116   1.105       .  S
C1111      H1117   1.110       .  S
C1114      H1118   1.105       .  S
C1114      H1119   1.109       .  S
C1114      H1120   1.112       .  S
C1121      C1122   1.396       .  A
C1121      C1126   1.410       .  A
C1121      H1128   1.079       .  S
C1122      C1123   1.425       .  A
C1123      C1124   1.403       .  A
C1123      C1130   1.503       .  S
C1124      C1125   1.396       .  A
C1124      H1129   1.085       .  S
C1125      C1126   1.428       .  A
C1126      C1127   1.500       .  S
C1127      H1131   1.111       .  S
C1127      H1132   1.094       .  S
C1127      H1133   1.110       .  S
C1130      H1134   1.103       .  S
C1130      H1135   1.111       .  S
C1130      H1136   1.108       .  S
C1137      C1138   1.406       .  A
C1137      C1142   1.401       .  A
C1137      H1144   1.084       .  S
C1138      C1139   1.417       .  A
C1139      C1140   1.417       .  A
C1139      C1146   1.507       .  S
C1140      C1141   1.410       .  A
C1140      H1145   1.082       .  S
C1141      C1142   1.415       .  A
C1142      C1143   1.509       .  S
C1143      H1147   1.111       .  S
C1143      H1148   1.109       .  S
C1143      H1149   1.107       .  S
C1146      H1150   1.105       .  S
C1146      H1151   1.110       .  S
C1146      H1152   1.111       .  S
C1153      C1154   1.404       .  A
C1153      C1158   1.411       .  A
C1153      H1160   1.083       .  S
C1154      C1155   1.414       .  A
C1155      C1156   1.394       .  A
C1155      C1162   1.511       .  S
C1156      C1157   1.401       .  A
C1156      H1161   1.084       .  S
C1157      C1158   1.417       .  A
C1158      C1159   1.505       .  S
C1159      H1163   1.111       .  S
C1159      H1164   1.110       .  S
C1159      H1165   1.111       .  S
C1162      H1166   1.110       .  S
C1162      H1167   1.107       .  S
C1162      H1168   1.103       .  S
C1169      C2658   1.405   1_455  A
C1169      C1174   1.409       .  A
C1169      H1176   1.084       .  S
C1170      C2657   1.405       .  A
C1170      C1171   1.421       .  A
C1171      C1172   1.400       .  A
C1171      C1178   1.510       .  S
C1172      C2661   1.399       .  A
C1172      H1177   1.085       .  S
C1173      C2660   1.399       .  A
C1173      C1174   1.417   1_655  A
C1174      C1175   1.507       .  S
C1175      H1179   1.111       .  S
C1175      H1180   1.110       .  S
C1175      H1181   1.111       .  S
C1178      H1182   1.110       .  S
C1178      H1183   1.109       .  S
C1178      H1184   1.111       .  S
C1185      C2674   1.414       .  A
C1185      C1190   1.401       .  A
C1185      H1192   1.084       .  S
C1186      C2673   1.415       .  A
C1186      C1187   1.416       .  A
C1187      C1188   1.406       .  A
C1187      C1194   1.507       .  S
C1188      C2677   1.406       .  A
C1188      H1193   1.085       .  S
C1189      C2676   1.406   1_455  A
C1189      C1190   1.403       .  A
C1190      C1191   1.507       .  S
C1191      H1195   1.111       .  S
C1191      H1196   1.110       .  S
C1191      H1197   1.111       .  S
C1194      H1198   1.110       .  S
C1194      H1199   1.110       .  S
C1194      H1200   1.111       .  S
C1201      C1202   1.398       .  A
C1201      C1206   1.405       .  A
C1201      H1208   1.084       .  S
C1202      C1203   1.425       .  A
C1203      C1204   1.409       .  A
C1203      C1210   1.509       .  S
C1204      C1205   1.405       .  A
C1204      H1209   1.084       .  S
C1205      C1206   1.419       .  A
C1206      C1207   1.483       .  S
C1207      H1211   1.111       .  S
C1207      H1212   1.096       .  S
C1207      H1213   1.108       .  S
C1210      H1214   1.109       .  S
C1210      H1215   1.110       .  S
C1210      H1216   1.111       .  S
C1217      C1218   1.404   1_554  A
C1217      C1222   1.394       .  A
C1217      H1224   1.072       .  S
C1218      C1219   1.412       .  A
C1219      C1220   1.422       .  A
C1219      C1226   1.503       .  S
C1220      C1221   1.413       .  A
C1220      H1225   1.083       .  S
C1221      C1222   1.412   1_556  A
C1222      C1223   1.514       .  S
C1223      H1227   1.110       .  S
C1223      H1228   1.110       .  S
C1223      H1229   1.108       .  S
C1226      H1230   1.110       .  S
C1226      H1231   1.111       .  S
C1226      H1232   1.111       .  S
C1233      C1234   1.387       .  A
C1233      C1238   1.397       .  A
C1233      H1240   1.084       .  S
C1234      C1235   1.426   1_554  A
C1235      C1236   1.405       .  A
C1235      C1242   1.505       .  S
C1236      C1237   1.394       .  A
C1236      H1241   1.084       .  S
C1237      C1238   1.432   1_556  A
C1238      C1239   1.512       .  S
C1239      H1243   1.111       .  S
C1239      H1244   1.086       .  S
C1239      H1245   1.094       .  S
C1242      H1246   1.111       .  S
C1242      H1247   1.099       .  S
C1242      H1248   1.109       .  S
C1249      C1250   1.402   1_556  A
C1249      C1254   1.408       .  A
C1249      H1256   1.084       .  S
C1250      C1251   1.423       .  A
C1251      C1252   1.413       .  A
C1251      C1258   1.509       .  S
C1252      C1253   1.404       .  A
C1252      H1257   1.084       .  S
C1253      C1254   1.426   1_554  A
C1254      C1255   1.511       .  S
C1255      H1259   1.111       .  S
C1255      H1260   1.103       .  S
C1255      H1261   1.104       .  S
C1258      H1262   1.107       .  S
C1258      H1263   1.111       .  S
C1258      H1264   1.111       .  S
C1265      C1266   1.419       .  A
C1265      C1270   1.429       .  A
C1265      H1272   1.083       .  S
C1266      C1267   1.421       .  A
C1267      C1268   1.407       .  A
C1267      C1274   1.509       .  S
C1268      C1269   1.412       .  A
C1268      H1273   1.083       .  S
C1269      C1270   1.417       .  A
C1270      C1271   1.502       .  S
C1271      H1275   1.111       .  S
C1271      H1276   1.103       .  S
C1271      H1277   1.110       .  S
C1274      H1278   1.108       .  S
C1274      H1279   1.110       .  S
C1274      H1280   1.111       .  S
C1281      C1282   1.404       .  A
C1281      C1286   1.412       .  A
C1281      H1288   1.084       .  S
C1282      C1283   1.414       .  A
C1283      C1284   1.404       .  A
C1283      C1290   1.505       .  S
C1284      C1285   1.403       .  A
C1284      H1289   1.079       .  S
C1285      C1286   1.421       .  A
C1286      C1287   1.506       .  S
C1287      H1291   1.110       .  S
C1287      H1292   1.111       .  S
C1287      H1293   1.107       .  S
C1290      H1294   1.106       .  S
C1290      H1295   1.110       .  S
C1290      H1296   1.104       .  S
C1297      C1298   1.414       .  A
C1297      C1302   1.414   1_545  A
C1297      H1304   1.084   1_545  S
C1298      C1299   1.422       .  A
C1299      C1300   1.370       .  A
C1299      C1306   1.510       .  S
C1300      C1301   1.380   1_545  A
C1300      H1305   1.074       .  S
C1301      C1302   1.408       .  A
C1302      C1303   1.502       .  S
C1303      H1307   1.110       .  S
C1303      H1308   1.109       .  S
C1306      H1310   1.105   1_545  S
C1306      H1312   1.108       .  S
C1313      C1314   1.414       .  A
C1313      C1318   1.422       .  A
C1313      H1320   1.082       .  S
C1314      C1315   1.416       .  A
C1315      C1316   1.391       .  A
C1315      C1322   1.512       .  S
C1316      C1317   1.397       .  A
C1316      H1321   1.064       .  S
C1317      C1318   1.416       .  A
C1318      C1319   1.505       .  S
C1319      H1324   1.108       .  S
C1322      H1326   1.108       .  S
C1322      H1328   1.105       .  S
C1329      C1330   1.401       .  A
C1329      C1334   1.393       .  A
C1329      H1336   1.081       .  S
C1330      C2819   1.409   1_455  A
C1331      C2818   1.409       .  A
C1331      C1332   1.403       .  A
C1331      C1338   1.507       .  S
C1332      C2821   1.411       .  A
C1332      H1337   1.083       .  S
C1333      C2820   1.411   1_455  A
C1333      C1334   1.420       .  A
C1334      C1335   1.513       .  S
C1335      H1339   1.111       .  S
C1335      H1340   1.109       .  S
C1335      H1341   1.110       .  S
C1338      H1342   1.110       .  S
C1338      H1343   1.110       .  S
C1338      H1344   1.111       .  S
C1345      C2834   1.415   1_455  A
C1345      C1350   1.411       .  A
C1345      H1352   1.083       .  S
C1346      C2833   1.415       .  A
C1346      C1347   1.419       .  A
C1347      C1348   1.409       .  A
C1347      C1354   1.508       .  S
C1348      C1349   1.403       .  A
C1348      H1353   1.075       .  S
C1349      C2271   1.490       .  S
C1349      C2838   1.406       .  A
C1350      C2837   1.406   1_455  A
C1350      C1351   1.505       .  S
C1351      H1355   1.105       .  S
C1351      H1356   1.110       .  S
C1351      H1357   1.111       .  S
C1354      H1358   1.110       .  S
C1354      H1359   1.110       .  S
C1354      H1360   1.111       .  S
C1361      C1366   1.404       .  A
C1361      H1368   1.084       .  S
C1362      C2851   1.421       .  A
C1363      C2850   1.421       .  A
C1363      C1364   1.405       .  A
C1363      C1370   1.509       .  S
C1364      C2109   1.405   1_545  A
C1364      H1369   1.084       .  S
C1365      C2108   1.405       .  A
C1365      C1366   1.418       .  A
C1366      C1367   1.508       .  S
C1367      H1371   1.111       .  S
C1367      H1372   1.108       .  S
C1370      H1375   1.109       .  S
C1370      H1376   1.111       .  S
C1377      C2122   1.407       .  A
C1377      C1382   1.402       .  A
C1377      H1384   1.084       .  S
C1378      C2121   1.407   1_565  A
C1378      C1379   1.422       .  A
C1379      C1380   1.406       .  A
C1379      C1386   1.506       .  S
C1380      H1385   1.084       .  S
C1381      C2870   1.417       .  A
C1382      C2869   1.417       .  A
C1382      C1383   1.511       .  S
C1383      H1387   1.111       .  S
C1383      H1388   1.109       .  S
C1383      H1389   1.107       .  S
C1386      H1391   1.105       .  S
C1386      H1392   1.111       .  S
C1393      C1394   1.399       .  A
C1393      C1398   1.393       .  A
C1393      H1400   1.086       .  S
C1394      C1395   1.395   1_556  A
C1395      C1396   1.392       .  A
C1395      C1402   1.502       .  S
C1396      C1397   1.413   1_554  A
C1396      H1401   1.081       .  S
C1397      C1398   1.412       .  A
C1398      C1399   1.496       .  S
C1399      H1403   1.112       .  S
C1399      H1404   1.109       .  S
C1399      H1405   1.102       .  S
C1402      H1406   1.109       .  S
C1402      H1407   1.104       .  S
C1402      H1408   1.111       .  S
C1409      C1410   1.408   1_556  A
C1409      C1414   1.391       .  A
C1409      H1416   1.083       .  S
C1410      C1411   1.394       .  A
C1411      C1412   1.385       .  A
C1411      C1418   1.507       .  S
C1412      C1413   1.411   1_554  A
C1412      H1417   1.085       .  S
C1413      C1414   1.399       .  A
C1414      C1415   1.506       .  S
C1415      H1419   1.111       .  S
C1415      H1420   1.110       .  S
C1415      H1421   1.110       .  S
C1418      H1422   1.110       .  S
C1418      H1423   1.111       .  S
C1418      H1424   1.111       .  S
C1425      C1426   1.405       .  A
C1425      C1430   1.407       .  A
C1425      H1432   1.085   1_556  S
C1427      C1428   1.417       .  A
C1427      C1434   1.504       .  S
C1428      H1433   1.084       .  S
C1429      C1430   1.421       .  A
C1430      C1431   1.509   1_566  S
C1431      H1435   1.111   1_545  S
C1431      H1436   1.102       .  S
C1431      H1437   1.111       .  S
C1434      H1438   1.109       .  S
C1434      H1439   1.110       .  S
C1434      H1440   1.111       .  S
C1441      C1442   1.408       .  A
C1441      C1446   1.417       .  A
C1441      H1448   1.084       .  S
C1443      C1444   1.403       .  A
C1443      C1450   1.511   1_554  S
C1444      H1449   1.084   1_554  S
C1445      C1446   1.414       .  A
C1446      C1447   1.505       .  S
C1447      H1451   1.111       .  S
C1447      H1452   1.111       .  S
C1447      H1453   1.110       .  S
C1450      H1454   1.109       .  S
C1450      H1455   1.100       .  S
C1450      H1456   1.111       .  S
C1457      C1458   1.413       .  A
C1457      C1462   1.427   1_554  A
C1457      H1464   1.078       .  S
C1458      C2947   1.410   1_455  A
C1459      C2946   1.410       .  A
C1459      C1460   1.389       .  A
C1459      C1466   1.501       .  S
C1460      C1461   1.396   1_554  A
C1460      H1465   1.084   1_554  S
C1461      C2950   1.423       .  A
C1462      C2949   1.423       .  A
C1462      C1463   1.503       .  S
C1463      H1467   1.110       .  S
C1463      H1468   1.111   1_556  S
C1463      H1469   1.110       .  S
C1466      H1470   1.109       .  S
C1466      H1471   1.109       .  S
C1466      H1472   1.109       .  S
C1473      C1474   1.398       .  A
C1473      C1478   1.406       .  A
C1473      H1480   1.085       .  S
C1474      C2963   1.419   1_556  A
C1475      C2962   1.419   1_454  A
C1475      C1476   1.396       .  A
C1475      C1482   1.508       .  S
C1476      C1477   1.400   1_455  A
C1476      H1481   1.084       .  S
C1477      C2966   1.427   1_554  A
C1478      C2965   1.427   1_556  A
C1478      C1479   1.508       .  S
C1479      H1483   1.111       .  S
C1479      H1484   1.107       .  S
C1479      H1485   1.109       .  S
C1482      H1486   1.105       .  S
C1482      H1487   1.103       .  S
C1482      H1488   1.111       .  S
O1489      C1497   1.273       .  A
O1489     Co1509   2.021       .  S
O1490      C1498   1.259       .  A
O1490     Co1510   1.864       .  S
O1491      C1499   1.258   1_545  A
O1491     Co1511   2.009       .  S
O1492      C1500   1.270       .  A
O1492     Co1512   2.019       .  S
O1493      C2243   1.253       .  A
O1493     Co1510   2.026       .  S
O1494      C2244   1.261   1_545  A
O1494     Co1509   1.961       .  S
O1495      C1498   1.298   1_554  A
O1496     Co1511   1.943       .  S
C1497      C2221   1.489       .  S
C1498      C2138   1.447       .  S
C1499      O2237   1.253       .  A
C1499      C2914   1.500       .  S
C1500      O2238   1.261       .  A
C1500      C2122   1.495       .  S
O1501      C2258   1.261       .  A
O1501     Co1509   2.035       .  S
O1502      C2259   1.270   1_655  A
O1502     Co1510   2.019       .  S
O1503      C1516   1.260       .  A
O1504     Co1512   1.862       .  S
O1505      C1517   1.305       .  A
O1505     Co1510   2.135   1_455  S
O1506      C1516   1.235   1_554  A
O1506     Co1509   1.905       .  S
O1507      C1514   1.244       .  A
O1507     Co1512   1.995       .  S
O1508      C1515   1.259   1_545  A
O1508     Co1511   1.960   1_455  S
Co1509     O1513   2.063   1_554  S
Co1512     O2257   2.010   1_554  S
O1513     Co2256   2.010   1_546  S
C1514      O2245   1.261       .  A
C1514      C2930   1.495       .  S
C1515      O2246   1.270   1_455  A
C1515      C2109   1.489       .  S
C1516      C2157   1.443       .  S
C1517      C2205   1.479       .  S
O1518      C1526   1.254   1_545  A
O1518     Co1538   1.950       .  S
O1519     Co2283   1.916       .  S
O1520      C1528   1.270       .  A
O1520     Co1540   2.020       .  S
O1521      C1529   1.263       .  A
O1521     Co1541   2.004       .  S
O1522      C2272   1.259   1_545  A
O1522     Co2283   1.974       .  S
O1523      C1529   1.262       .  A
O1523     Co1538   1.998       .  S
O1524      C1527   1.293       .  A
O1524     Co1541   2.104       .  S
O1525     Co1540   2.029       .  S
C1526      C2125   1.481       .  S
C1528      O2266   1.259       .  A
C1528      C2045   1.458       .  S
C1529      C2026   1.487       .  S
O1530      C1543   1.273   1_545  A
O1530     Co1538   2.003       .  S
O1531      C1544   1.270       .  A
O1531     Co1539   2.089       .  S
O1532     Co1540   1.873       .  S
O1533     Co1541   1.899       .  S
O1534      C1546   1.296   1_655  A
O1534     Co1539   2.088       .  S
O1535      C1545   1.278       .  A
O1535     Co2282   2.057       .  S
O1536      C1543   1.275       .  A
O1536     Co1541   1.996   1_565  S
O1537      C1544   1.242       .  A
O1537     Co1540   1.955       .  S
Co1538     O2279   2.057   1_545  S
Co1538     O1542   2.026   1_545  S
Co1539     O2263   1.916       .  S
Co1539     O2266   1.974       .  S
Co1541     O1542   2.008   1_545  S
C1543      C2058   1.493       .  S
C1544      C2013   1.523       .  S
C1545      C2074   1.452       .  S
C1546      C2106   1.495       .  S
O1547      C1555   1.268       .  A
O1547     Co1567   1.998   1_554  S
O1548      C1556   1.256       .  A
O1548     Co1568   2.077       .  S
O1549      C1557   1.256       .  A
O1549     Co1569   1.880       .  S
O1550      C1558   1.235       .  A
O1550     Co1570   1.876       .  S
O1551      C1557   1.299       .  A
O1551     Co1568   2.108       .  S
O1552      C1558   1.279       .  A
O1552     Co1567   2.055       .  S
O1553      C1556   1.229       .  A
O1554      C1555   1.279       .  A
C1555      C1949   1.504       .  S
C1556      C2202   1.502       .  S
C1557      C1933   1.470       .  S
C1558      C1981   1.479       .  S
O1559      C1572   1.258       .  A
O1559     Co1567   1.959       .  S
O1560      C1573   1.275       .  A
O1560     Co1568   1.927       .  S
O1561     Co1569   1.949       .  S
O1562      C1575   1.272       .  A
O1563      C1575   1.255       .  A
O1563     Co1568   1.986   1_556  S
O1564      C1574   1.269       .  A
O1564     Co1567   2.018       .  S
O1565      C1572   1.271       .  A
O1565     Co1570   2.016       .  S
O1566      C1573   1.294       .  A
O1566     Co1569   2.105       .  S
Co1568     O1571   2.092   1_554  S
Co1569     O1571   2.003   1_554  S
C1572      C1914   1.486       .  S
C1573      C1997   1.500       .  S
C1574      C2218   1.474       .  S
C1575      C1962   1.498       .  S
O1576      C1584   1.271       .  A
O1576     Co1596   1.992       .  S
O1577      C1585   1.259       .  A
O1577     Co1597   1.979       .  S
O1578      C1586   1.273       .  A
O1578     Co1598   2.024       .  S
O1579      C1587   1.261       .  A
O1579     Co1599   2.005       .  S
O1580      C1586   1.258       .  A
O1580     Co1597   1.955       .  S
O1581      C1587   1.279       .  A
O1581     Co1596   2.039       .  S
O1582      C1585   1.254       .  A
O1583      C1584   1.265       .  A
C1584      C1853   1.492       .  S
C1585      C2077   1.479       .  S
C1586      C1917   1.480       .  S
C1587      C1882   1.496       .  S
O1588      C1601   1.267       .  A
O1588     Co1596   2.038       .  S
O1589      C1602   1.251       .  A
O1589     Co1597   2.016       .  S
O1590     Co1598   2.043       .  S
O1591      C1604   1.254       .  A
O1592      C1604   1.263       .  A
O1592     Co1597   2.000       .  S
O1593      C1603   1.264       .  A
O1593     Co1596   1.944       .  S
O1594      C1601   1.245   1_455  A
O1594     Co1599   1.944   1_455  S
O1595      C1602   1.245       .  A
O1595     Co1598   1.956       .  S
Co1597     O1600   2.143       .  S
Co1598     O1600   2.171       .  S
C1601      C1930   1.489   1_655  S
C1602      C1901   1.480       .  S
C1603      C2090   1.503       .  S
C1604      C1869   1.499       .  S
O1605      C1613   1.274       .  A
O1605     Co1625   2.049       .  S
O1606      C1614   1.286   1_556  A
O1606     Co1626   2.027       .  S
O1607      C1615   1.251       .  A
O1607     Co1627   1.958       .  S
O1608      C1616   1.255   1_565  A
O1608     Co1628   1.965   1_565  S
O1609      C1615   1.286       .  A
O1609     Co1626   2.054       .  S
O1610      C1616   1.256       .  A
O1610     Co1625   1.982       .  S
O1611      C1614   1.260       .  A
O1611     Co2372   1.972       .  S
O1612      C2357   1.256       .  A
O1612     Co1627   1.971   1_554  S
C1613      O2356   1.256   1_545  A
C1613      C2189   1.484       .  S
C1614      C1821   1.464       .  S
C1615      C1965   1.488       .  S
C1616      C1802   1.463       .  S
O1617      C1630   1.271       .  A
O1617     Co1625   1.906       .  S
O1618      C1631   1.261       .  A
O1618     Co1626   1.877       .  S
O1619      C1632   1.261       .  A
O1619     Co2371   1.991   1_545  S
O1620      C2377   1.258   1_545  A
O1620     Co1628   1.996   1_556  S
O1621      C1633   1.256       .  A
O1621     Co1626   2.008       .  S
O1622      C1632   1.257       .  A
O1622     Co1625   1.978   1_556  S
O1623      C1630   1.287       .  A
O1623     Co1628   2.064       .  S
O1624      C1631   1.293       .  A
O1624     Co1627   2.085       .  S
Co1625     O1629   2.003   1_545  S
Co1626     O2373   1.973   1_556  S
Co1627     O2363   1.991       .  S
Co1627     O2373   2.149   1_556  S
Co1628     O2355   1.972   1_545  S
Co1628     O1629   2.146   1_545  S
O1629     Co2370   1.973   1_554  S
O1629     Co2371   2.149   1_554  S
C1630      C1946   1.499       .  S
C1631      C1789   1.485       .  S
C1632      C1837   1.496       .  S
C1633      O2364   1.258       .  A
C1633      C2173   1.499       .  S
O1634      C1642   1.269   1_545  A
O1634     Co1654   2.045       .  S
O1635      C1643   1.269       .  A
O1635     Co1655   1.987       .  S
O1636      C1644   1.280       .  A
O1636     Co1656   1.957       .  S
O1637      C1645   1.253   1_565  A
O1637     Co1657   1.970   1_565  S
O1638      C1644   1.278       .  A
O1638     Co1655   2.016       .  S
O1639      C1645   1.266       .  A
O1639     Co1654   2.003       .  S
O1640      C1643   1.277       .  A
O1640     Co2401   2.026       .  S
O1641      C2386   1.256       .  A
O1641     Co1656   1.987       .  S
C1642      O2385   1.256       .  A
C1642      C2061   1.497       .  S
C1643      C1757   1.516       .  S
C1644      C1866   1.498       .  S
C1645      C1786   1.487   1_545  S
O1646      C1659   1.257       .  A
O1646     Co1654   1.959       .  S
O1647      C1660   1.252       .  A
O1647     Co1655   1.978       .  S
O1648      C1661   1.279       .  A
O1648     Co2400   2.074   1_545  S
O1649      C2406   1.241       .  A
O1649     Co1657   1.949       .  S
O1650      C1662   1.261       .  A
O1650     Co1655   2.015       .  S
O1651      C1661   1.244       .  A
O1651     Co1654   1.943       .  S
O1652      C1659   1.286       .  A
O1652     Co1657   2.077       .  S
O1653      C1660   1.250       .  A
O1653     Co1656   1.968       .  S
Co1654     O1658   2.076       .  S
Co1655     O2402   2.213       .  S
Co1656     O2392   2.074       .  S
Co1656     O2402   1.975       .  S
Co1657     O2384   2.026   1_545  S
Co1657     O1658   1.982       .  S
O1658     Co2399   2.213   1_545  S
O1658     Co2400   1.975   1_545  S
C1659      C1850   1.518       .  S
C1660      C1805   1.465       .  S
C1661      C1770   1.485       .  S
C1662      O2393   1.241       .  A
C1662      C2042   1.470       .  S
O1663      C1671   1.221       .  A
O1663     Co1683   1.929   1_554  S
O1664      C1672   1.279       .  A
O1664     Co1684   1.972       .  S
O1665      C1673   1.265       .  A
O1665     Co1685   2.011       .  S
O1666      C1674   1.247   1_554  A
O1666     Co1686   2.001   1_554  S
O1667      C1673   1.251       .  A
O1667     Co1684   1.960       .  S
O1668      C1674   1.259       .  A
O1668     Co1683   2.016       .  S
O1669      C1672   1.283   1_556  A
O1669     Co1686   1.962       .  S
O1670      C1671   1.245       .  A
O1670     Co1685   2.001       .  S
C1671      C2154   1.434       .  S
C1672      C1818   1.448       .  S
C1673      C1738   1.489       .  S
C1674      C1994   1.501   1_556  S
O1675      C1688   1.258       .  A
O1675     Co1683   1.936       .  S
O1676      C1689   1.284       .  A
O1676     Co1684   2.046       .  S
O1677      C1690   1.264   1_554  A
O1677     Co1685   1.947       .  S
O1678      C1691   1.248       .  A
O1678     Co1686   2.004       .  S
O1679      C1691   1.278   1_554  A
O1679     Co1684   2.021       .  S
O1680      C1690   1.281       .  A
O1680     Co1683   2.046       .  S
O1681      C1688   1.287       .  A
O1681     Co1686   2.064       .  S
O1682      C1689   1.248       .  A
O1682     Co1685   1.943       .  S
Co1683     O1687   2.019       .  S
Co1684     O1687   2.005   1_554  S
Co1685     O1687   2.145   1_554  S
Co1686     O1687   2.064       .  S
C1688      C1722   1.500       .  S
C1689      C1978   1.471       .  S
C1690      C1834   1.492       .  S
C1691      C2141   1.469       .  S
O1692      C1700   1.274       .  A
O1692     Co1712   2.038       .  S
O1693      C1701   1.240       .  A
O1693     Co1713   1.949       .  S
O1694      C1702   1.259       .  A
O1694     Co1714   1.954       .  S
O1695      C1703   1.260       .  A
O1695     Co1715   2.020       .  S
O1696      C1702   1.273       .  A
O1696     Co1713   2.036       .  S
O1697      C1703   1.239       .  A
O1697     Co1712   1.949       .  S
O1698      C1701   1.261       .  A
O1698     Co1715   2.028       .  S
O1699      C1700   1.259       .  A
O1699     Co1714   1.973       .  S
C1700      C2029   1.493       .  S
C1701      C1754   1.499       .  S
C1702      C1898   1.478       .  S
C1703      C1741   1.494       .  S
O1704      C1717   1.276       .  A
O1704     Co1712   1.919       .  S
O1705      C1718   1.266       .  A
O1705     Co1713   1.981       .  S
O1706      C1719   1.269       .  A
O1706     Co1714   2.032       .  S
O1707      C1720   1.293       .  A
O1707     Co1715   2.045       .  S
O1708      C1720   1.280       .  A
O1708     Co1713   1.966       .  S
O1709      C1719   1.266       .  A
O1709     Co1712   1.982       .  S
O1710      C1717   1.300       .  A
O1710     Co1715   2.080       .  S
O1711      C1718   1.264       .  A
O1711     Co1714   1.999       .  S
Co1712     O1716   1.961       .  S
Co1713     O1716   1.994       .  S
Co1714     O1716   2.068       .  S
Co1715     O1716   2.245       .  S
C1717      C1885   1.491       .  S
C1718      C1725   1.492       .  S
C1719      C1773   1.502       .  S
C1720      C2010   1.523       .  S
C1721      C1722   1.407       .  A
C1721      C1726   1.405       .  A
C1721      H1728   1.084       .  S
C1722      C1723   1.411       .  A
C1723      C1724   1.408       .  A
C1723      C1730   1.487       .  S
C1724      C1725   1.404       .  A
C1724      H1729   1.084       .  S
C1725      C1726   1.420       .  A
C1726      C1727   1.508       .  S
C1727      H1731   1.111       .  S
C1727      H1732   1.107       .  S
C1727      H1733   1.109       .  S
C1730      H1734   1.105       .  S
C1730      H1735   1.109       .  S
C1730      H1736   1.111       .  S
C1737      C1738   1.400       .  A
C1737      C1742   1.406       .  A
C1737      H1744   1.084       .  S
C1738      C1739   1.422       .  A
C1739      C1740   1.406       .  A
C1739      C1746   1.510       .  S
C1740      C1741   1.403       .  A
C1740      H1745   1.084       .  S
C1741      C1742   1.424       .  A
C1742      C1743   1.508       .  S
C1743      H1747   1.111       .  S
C1743      H1748   1.110       .  S
C1743      H1749   1.108       .  S
C1746      H1750   1.110       .  S
C1746      H1751   1.110       .  S
C1746      H1752   1.111       .  S
C1753      C1754   1.397       .  A
C1753      C1758   1.407       .  A
C1753      H1760   1.084       .  S
C1754      C1755   1.419       .  A
C1755      C1756   1.411       .  A
C1755      C1762   1.502       .  S
C1756      C1757   1.407       .  A
C1756      H1761   1.083       .  S
C1757      C1758   1.422       .  A
C1758      C1759   1.479       .  S
C1759      H1763   1.111       .  S
C1759      H1764   1.090       .  S
C1759      H1765   1.101       .  S
C1762      H1766   1.094       .  S
C1762      H1767   1.110       .  S
C1762      H1768   1.111       .  S
C1769      C1770   1.410       .  A
C1769      C1774   1.415       .  A
C1769      H1776   1.081       .  S
C1770      C1771   1.410       .  A
C1771      C1772   1.407       .  A
C1771      C1778   1.507       .  S
C1772      C1773   1.409       .  A
C1772      H1777   1.074       .  S
C1773      C1774   1.415       .  A
C1774      C1775   1.503       .  S
C1775      H1779   1.111       .  S
C1775      H1780   1.109       .  S
C1775      H1781   1.111       .  S
C1778      H1782   1.111       .  S
C1778      H1783   1.110       .  S
C1778      H1784   1.111       .  S
C1785      C1786   1.405   1_545  A
C1785      C1790   1.401       .  A
C1785      H1792   1.084       .  S
C1786      C2531   1.420       .  A
C1787      C2530   1.420       .  A
C1787      C1788   1.403       .  A
C1787      C1794   1.510       .  S
C1788      C1789   1.405       .  A
C1788      H1793   1.084       .  S
C1789      C2534   1.418       .  A
C1790      C2533   1.418   1_545  A
C1790      C1791   1.508       .  S
C1791      H1795   1.111       .  S
C1791      H1796   1.109       .  S
C1791      H1797   1.110       .  S
C1794      H1798   1.110       .  S
C1794      H1799   1.110       .  S
C1794      H1800   1.111       .  S
C1801      C2546   1.396       .  A
C1801      C1806   1.401       .  A
C1801      H1808   1.084       .  S
C1802      C2545   1.396   1_545  A
C1802      C1803   1.415       .  A
C1803      C1804   1.401       .  A
C1803      C1810   1.508       .  S
C1804      C2549   1.397       .  A
C1804      H1809   1.084       .  S
C1805      C2548   1.397       .  A
C1805      C1806   1.417       .  A
C1806      C1807   1.508       .  S
C1807      H1811   1.111       .  S
C1807      H1812   1.110       .  S
C1807      H1813   1.109       .  S
C1810      H1814   1.109       .  S
C1810      H1815   1.111       .  S
C1810      H1816   1.111       .  S
C1817      C1818   1.395       .  A
C1817      C1822   1.391       .  A
C1817      H1824   1.083       .  S
C1818      C1819   1.403       .  A
C1819      C1820   1.397       .  A
C1819      C1826   1.499       .  S
C1820      C1821   1.403       .  A
C1820      H1825   1.082       .  S
C1821      C1822   1.404       .  A
C1822      C1823   1.487       .  S
C1823      H1827   1.111       .  S
C1823      H1828   1.089       .  S
C1823      H1829   1.110       .  S
C1826      H1830   1.111       .  S
C1826      H1831   1.101   1_554  S
C1826      H1832   1.111       .  S
C1833      C1834   1.411       .  A
C1833      C1838   1.407       .  A
C1833      H1840   1.083       .  S
C1834      C1835   1.415       .  A
C1835      C1836   1.404       .  A
C1835      C1842   1.508       .  S
C1836      C1837   1.411       .  A
C1836      H1841   1.084       .  S
C1837      C1838   1.415       .  A
C1838      C1839   1.507       .  S
C1839      H1843   1.111       .  S
C1839      H1844   1.110       .  S
C1839      H1845   1.103       .  S
C1842      H1846   1.110       .  S
C1842      H1847   1.110       .  S
C1842      H1848   1.110       .  S
C1849      C1850   1.420       .  A
C1849      C1854   1.414       .  A
C1849      H1856   1.084       .  S
C1850      C1851   1.414       .  A
C1851      C1852   1.406       .  A
C1851      C1858   1.480       .  S
C1852      C1853   1.402       .  A
C1852      H1857   1.085       .  S
C1853      C1854   1.408       .  A
C1854      C1855   1.507       .  S
C1855      H1859   1.111       .  S
C1855      H1860   1.105       .  S
C1855      H1861   1.110       .  S
C1858      H1862   1.105       .  S
C1858      H1863   1.109       .  S
C1858      H1864   1.112       .  S
C1865      C1866   1.396       .  A
C1865      C1870   1.410       .  A
C1865      H1872   1.079       .  S
C1866      C1867   1.425       .  A
C1867      C1868   1.403       .  A
C1867      C1874   1.503       .  S
C1868      C1869   1.396       .  A
C1868      H1873   1.085       .  S
C1869      C1870   1.428       .  A
C1870      C1871   1.500       .  S
C1871      H1875   1.111       .  S
C1871      H1876   1.094       .  S
C1871      H1877   1.110       .  S
C1874      H1878   1.103       .  S
C1874      H1879   1.111       .  S
C1874      H1880   1.108       .  S
C1881      C1882   1.406       .  A
C1881      C1886   1.401       .  A
C1881      H1888   1.084       .  S
C1882      C1883   1.417       .  A
C1883      C1884   1.417       .  A
C1883      C1890   1.507       .  S
C1884      C1885   1.410       .  A
C1884      H1889   1.082       .  S
C1885      C1886   1.415       .  A
C1886      C1887   1.509       .  S
C1887      H1891   1.111       .  S
C1887      H1892   1.109       .  S
C1887      H1893   1.107       .  S
C1890      H1894   1.105       .  S
C1890      H1895   1.110       .  S
C1890      H1896   1.111       .  S
C1897      C1898   1.404       .  A
C1897      C1902   1.411       .  A
C1897      H1904   1.083       .  S
C1898      C1899   1.414       .  A
C1899      C1900   1.394       .  A
C1899      C1906   1.511       .  S
C1900      C1901   1.401       .  A
C1900      H1905   1.084       .  S
C1901      C1902   1.417       .  A
C1902      C1903   1.505       .  S
C1903      H1907   1.111       .  S
C1903      H1908   1.110       .  S
C1903      H1909   1.111       .  S
C1906      H1910   1.110       .  S
C1906      H1911   1.107       .  S
C1906      H1912   1.103       .  S
C1913      C1918   1.409       .  A
C1913      H1920   1.084       .  S
C1914      C1915   1.421       .  A
C1915      C1916   1.400       .  A
C1915      C1922   1.510       .  S
C1916      H1921   1.085       .  S
C1917      C1918   1.417       .  A
C1918      C1919   1.507       .  S
C1919      H1923   1.111       .  S
C1919      H1924   1.110       .  S
C1919      H1925   1.111       .  S
C1922      H1926   1.110       .  S
C1922      H1927   1.109       .  S
C1922      H1928   1.111       .  S
C1929      C1934   1.401       .  A
C1929      H1936   1.084       .  S
C1930      C1931   1.416   1_455  A
C1931      C1932   1.406       .  A
C1931      C1938   1.507       .  S
C1932      H1937   1.085       .  S
C1933      C1934   1.403       .  A
C1934      C1935   1.507       .  S
C1935      H1939   1.111       .  S
C1935      H1940   1.110       .  S
C1935      H1941   1.111       .  S
C1938      H1942   1.110       .  S
C1938      H1943   1.110       .  S
C1938      H1944   1.111       .  S
C1945      C1946   1.398       .  A
C1945      C1950   1.406       .  A
C1945      H1952   1.084       .  S
C1946      C1947   1.425       .  A
C1947      C1948   1.409       .  A
C1947      C1954   1.509       .  S
C1948      C1949   1.405       .  A
C1948      H1953   1.084       .  S
C1949      C1950   1.419       .  A
C1950      C1951   1.483       .  S
C1951      H1955   1.111       .  S
C1951      H1956   1.096       .  S
C1951      H1957   1.108       .  S
C1954      H1958   1.109       .  S
C1954      H1959   1.110       .  S
C1954      H1960   1.111       .  S
C1961      C1962   1.404   1_554  A
C1961      C1966   1.394       .  A
C1961      H1968   1.072       .  S
C1962      C1963   1.412       .  A
C1963      C1964   1.422       .  A
C1963      C1970   1.503       .  S
C1964      C1965   1.413       .  A
C1964      H1969   1.083       .  S
C1965      C1966   1.412   1_556  A
C1966      C1967   1.514       .  S
C1967      H1971   1.110       .  S
C1967      H1972   1.110       .  S
C1967      H1973   1.108       .  S
C1970      H1974   1.110       .  S
C1970      H1975   1.111       .  S
C1970      H1976   1.111       .  S
C1977      C1978   1.387       .  A
C1977      C1982   1.397       .  A
C1977      H1984   1.084       .  S
C1978      C1979   1.426   1_554  A
C1979      C1980   1.405       .  A
C1979      C1986   1.505       .  S
C1980      C1981   1.394       .  A
C1980      H1985   1.084       .  S
C1981      C1982   1.432   1_556  A
C1982      C1983   1.512       .  S
C1983      H1987   1.111       .  S
C1983      H1988   1.086       .  S
C1983      H1989   1.094       .  S
C1986      H1990   1.111       .  S
C1986      H1991   1.099       .  S
C1986      H1992   1.109       .  S
C1993      C1994   1.402   1_556  A
C1993      C1998   1.408       .  A
C1993      H2000   1.084       .  S
C1994      C1995   1.423       .  A
C1995      C1996   1.413       .  A
C1995      C2002   1.509       .  S
C1996      C1997   1.404       .  A
C1996      H2001   1.084       .  S
C1997      C1998   1.426   1_554  A
C1998      C1999   1.511       .  S
C1999      H2003   1.111       .  S
C1999      H2004   1.103       .  S
C1999      H2005   1.104       .  S
C2002      H2006   1.107       .  S
C2002      H2007   1.111       .  S
C2002      H2008   1.111       .  S
C2009      C2010   1.419       .  A
C2009      C2014   1.429       .  A
C2009      H2016   1.083       .  S
C2010      C2011   1.421       .  A
C2011      C2012   1.407       .  A
C2011      C2018   1.509       .  S
C2012      C2013   1.412       .  A
C2012      H2017   1.083       .  S
C2013      C2014   1.417       .  A
C2014      C2015   1.502       .  S
C2015      H2019   1.111       .  S
C2015      H2020   1.103       .  S
C2015      H2021   1.110       .  S
C2018      H2022   1.108       .  S
C2018      H2023   1.110       .  S
C2018      H2024   1.111       .  S
C2025      C2026   1.404       .  A
C2025      C2030   1.412       .  A
C2025      H2032   1.084       .  S
C2026      C2027   1.414       .  A
C2027      C2028   1.404       .  A
C2027      C2034   1.505       .  S
C2028      C2029   1.403       .  A
C2028      H2033   1.079       .  S
C2029      C2030   1.421       .  A
C2030      C2031   1.506       .  S
C2031      H2035   1.110       .  S
C2031      H2036   1.111       .  S
C2031      H2037   1.107       .  S
C2034      H2038   1.106       .  S
C2034      H2039   1.110       .  S
C2034      H2040   1.104       .  S
C2041      C2042   1.414       .  A
C2041      C2046   1.414       .  A
C2041      H2048   1.084       .  S
C2042      C2043   1.422       .  A
C2043      C2044   1.370       .  A
C2043      C2050   1.510       .  S
C2044      C2045   1.380       .  A
C2044      H2049   1.074       .  S
C2045      C2046   1.408       .  A
C2046      C2047   1.502       .  S
C2047      H2051   1.110       .  S
C2047      H2052   1.109       .  S
C2047      H2797   1.110       .  S
C2050      H2054   1.105       .  S
C2050      H2799   1.087       .  S
C2050      H2056   1.108       .  S
H2053      C2791   1.110   1_545  S
H2055      C2794   1.087       .  S
C2057      C2058   1.414   1_545  A
C2057      C2062   1.422       .  A
C2057      H2064   1.082       .  S
C2058      C2059   1.416       .  A
C2059      C2060   1.391       .  A
C2059      C2066   1.512       .  S
C2060      C2061   1.397       .  A
C2060      H2065   1.064       .  S
C2061      C2062   1.416   1_565  A
C2062      C2063   1.505       .  S
C2063      H2811   1.111       .  S
C2063      H2068   1.108       .  S
C2063      H2813   1.111       .  S
C2066      H2070   1.108       .  S
C2066      H2815   1.096       .  S
C2066      H2072   1.105       .  S
H2067      C2807   1.111       .  S
H2069      C2807   1.111       .  S
H2071      C2810   1.096       .  S
C2073      C2074   1.401       .  A
C2073      C2078   1.393       .  A
C2073      H2080   1.081       .  S
C2075      C2076   1.403       .  A
C2075      C2082   1.507       .  S
C2076      H2081   1.083       .  S
C2077      C2078   1.420       .  A
C2078      C2079   1.513       .  S
C2079      H2083   1.111       .  S
C2079      H2084   1.109       .  S
C2079      H2085   1.110       .  S
C2082      H2086   1.110       .  S
C2082      H2087   1.110       .  S
C2082      H2088   1.111       .  S
C2089      C2094   1.411       .  A
C2089      H2096   1.083       .  S
C2090      C2091   1.419       .  A
C2091      C2092   1.409       .  A
C2091      C2098   1.508       .  S
C2092      C2093   1.403       .  A
C2092      H2097   1.075       .  S
C2094      C2095   1.505       .  S
C2095      H2099   1.105       .  S
C2095      H2100   1.110       .  S
C2095      H2101   1.111       .  S
C2098      H2102   1.110       .  S
C2098      H2103   1.110       .  S
C2098      H2104   1.111       .  S
C2105      C2850   1.408   1_665  A
C2105      C2110   1.404       .  A
C2105      H2112   1.084       .  S
C2106      C2849   1.408   1_455  A
C2107      C2108   1.405       .  A
C2107      C2114   1.509       .  S
C2108      H2113   1.084       .  S
C2109      C2110   1.418   1_455  A
C2110      C2111   1.508       .  S
C2111      H2115   1.111       .  S
C2111      H2116   1.108       .  S
C2111      H2861   1.110       .  S
C2114      H2862   1.110       .  S
C2114      H2119   1.109       .  S
C2114      H2120   1.111       .  S
H2117      C2855   1.110       .  S
H2118      C2858   1.110       .  S
C2121      C2126   1.402       .  A
C2121      H2128   1.084       .  S
C2122      C2123   1.422       .  A
C2123      C2124   1.406       .  A
C2123      C2130   1.506       .  S
C2124      C2869   1.401       .  A
C2124      H2129   1.084       .  S
C2125      C2868   1.401       .  A
C2126      C2127   1.511       .  S
C2127      H2131   1.111       .  S
C2127      H2132   1.109   1_655  S
C2127      H2133   1.107       .  S
C2130      H2878   1.109       .  S
C2130      H2135   1.105       .  S
C2130      H2136   1.111       .  S
H2134      C2874   1.109       .  S
C2137      C2138   1.399       .  A
C2137      C2142   1.393       .  A
C2137      H2144   1.086       .  S
C2138      C2139   1.395   1_556  A
C2139      C2140   1.392       .  A
C2139      C2146   1.502       .  S
C2140      C2141   1.413   1_554  A
C2140      H2145   1.081       .  S
C2141      C2142   1.412       .  A
C2142      C2143   1.496       .  S
C2143      H2147   1.112       .  S
C2143      H2148   1.109       .  S
C2143      H2149   1.102       .  S
C2146      H2150   1.109       .  S
C2146      H2151   1.104       .  S
C2146      H2152   1.111       .  S
C2153      C2154   1.408   1_556  A
C2153      C2158   1.391       .  A
C2153      H2160   1.083       .  S
C2154      C2155   1.394       .  A
C2155      C2156   1.385       .  A
C2155      C2162   1.507       .  S
C2156      C2157   1.411   1_554  A
C2156      H2161   1.085       .  S
C2157      C2158   1.399       .  A
C2158      C2159   1.506       .  S
C2159      H2163   1.111       .  S
C2159      H2164   1.110       .  S
C2159      H2165   1.110       .  S
C2162      H2166   1.110       .  S
C2162      H2167   1.111       .  S
C2162      H2168   1.111       .  S
C2169      C2170   1.405       .  A
C2169      C2174   1.407       .  A
C2169      H2176   1.085   1_556  S
C2170      C2243   1.500       .  S
C2170      C2915   1.416       .  A
C2171      C2914   1.416       .  A
C2171      C2172   1.417       .  A
C2171      C2178   1.504       .  S
C2172      C2917   1.409       .  A
C2172      H2177   1.084       .  S
C2173      C2916   1.409       .  A
C2173      C2174   1.421       .  A
C2174      C2175   1.509   1_556  S
C2175      H2179   1.111       .  S
C2175      H2180   1.102       .  S
C2175      H2181   1.111       .  S
C2178      H2182   1.109       .  S
C2178      H2183   1.110   1_565  S
C2178      H2184   1.111       .  S
C2185      C2186   1.408       .  A
C2185      C2190   1.417       .  A
C2185      H2192   1.084       .  S
C2186      C2258   1.495       .  S
C2186      C2931   1.425       .  A
C2187      C2930   1.425       .  A
C2187      C2188   1.403       .  A
C2187      C2194   1.511   1_554  S
C2188      C2933   1.398       .  A
C2188      H2193   1.084   1_554  S
C2189      C2932   1.398       .  A
C2189      C2190   1.414       .  A
C2190      C2191   1.505       .  S
C2191      H2195   1.111       .  S
C2191      H2196   1.111       .  S
C2191      H2197   1.110   1_545  S
C2194      H2198   1.109       .  S
C2194      H2199   1.100       .  S
C2194      H2200   1.111       .  S
C2201      C2202   1.413       .  A
C2201      C2206   1.427   1_554  A
C2201      H2208   1.078       .  S
C2203      C2204   1.389       .  A
C2203      C2210   1.501       .  S
C2204      C2205   1.396   1_654  A
C2204      H2209   1.084   1_554  S
C2206      C2207   1.503       .  S
C2207      H2211   1.110       .  S
C2207      H2212   1.111   1_556  S
C2207      H2213   1.110       .  S
C2210      H2214   1.109       .  S
C2210      H2215   1.109       .  S
C2210      H2216   1.109       .  S
C2217      C2218   1.398       .  A
C2217      C2222   1.406       .  A
C2217      H2224   1.085       .  S
C2219      C2220   1.396       .  A
C2219      C2226   1.508       .  S
C2220      C2221   1.400       .  A
C2220      H2225   1.084       .  S
C2222      C2223   1.508       .  S
C2223      H2227   1.111       .  S
C2223      H2228   1.107       .  S
C2223      H2229   1.109       .  S
C2226      H2230   1.105       .  S
C2226      H2231   1.103       .  S
C2226      H2232   1.111       .  S
O2233      C2241   1.273       .  A
O2233     Co2253   2.021       .  S
O2234      C2242   1.259       .  A
O2234     Co2254   1.864       .  S
O2235      C2243   1.258       .  A
O2235     Co2255   2.009       .  S
O2236      C2244   1.270       .  A
O2236     Co2256   2.019       .  S
O2237     Co2254   2.026       .  S
O2238     Co2253   1.961       .  S
O2239      C2242   1.298   1_554  A
O2240     Co2255   1.943       .  S
C2241      C2965   1.489       .  S
C2242      C2882   1.447       .  S
C2244      C2866   1.495       .  S
O2245     Co2253   2.035       .  S
O2246     Co2254   2.019       .  S
O2247      C2260   1.260       .  A
O2248     Co2256   1.862       .  S
O2249      C2261   1.305       .  A
O2249     Co2254   2.135   1_455  S
O2250      C2260   1.235   1_554  A
O2250     Co2253   1.905       .  S
O2251      C2258   1.244   1_565  A
O2251     Co2256   1.995       .  S
O2252      C2259   1.259       .  A
O2252     Co2255   1.960   1_455  S
Co2253     O2257   2.063   1_554  S
C2259      C2853   1.489       .  S
C2260      C2901   1.443       .  S
C2261      C2949   1.479       .  S
O2262      C2270   1.254       .  A
O2262     Co2282   1.950       .  S
O2264      C2272   1.270       .  A
O2264     Co2284   2.020       .  S
O2265      C2273   1.263       .  A
O2265     Co2285   2.004       .  S
O2267      C2273   1.262       .  A
O2267     Co2282   1.998       .  S
O2268      C2271   1.293       .  A
O2268     Co2285   2.104       .  S
O2269     Co2284   2.029       .  S
C2270      C2869   1.481       .  S
C2272      C2789   1.458       .  S
C2273      C2770   1.487       .  S
O2274      C2287   1.273       .  A
O2274     Co2282   2.003       .  S
O2275      C2288   1.270       .  A
O2275     Co2283   2.089   1_565  S
O2276     Co2284   1.873       .  S
O2277     Co2285   1.899       .  S
O2278      C2290   1.296   1_665  A
O2278     Co2283   2.088   1_565  S
O2279      C2289   1.278       .  A
O2280      C2287   1.275       .  A
O2280     Co2285   1.996       .  S
O2281      C2288   1.242       .  A
O2281     Co2284   1.955       .  S
Co2282     O2286   2.026       .  S
Co2285     O2286   2.008       .  S
C2287      C2802   1.493       .  S
C2288      C2757   1.523       .  S
C2289      C2818   1.452       .  S
C2290      C2850   1.495       .  S
O2291      C2299   1.268       .  A
O2291     Co2311   1.998   1_554  S
O2292      C2300   1.256       .  A
O2292     Co2312   2.077       .  S
O2293      C2301   1.256       .  A
O2293     Co2313   1.880       .  S
O2294      C2302   1.235       .  A
O2294     Co2314   1.876       .  S
O2295      C2301   1.299       .  A
O2295     Co2312   2.108       .  S
O2296      C2302   1.279       .  A
O2296     Co2311   2.055       .  S
O2297      C2300   1.229       .  A
O2298      C2299   1.279       .  A
C2299      C2693   1.504       .  S
C2300      C2946   1.502       .  S
C2301      C2677   1.470       .  S
C2302      C2725   1.479       .  S
O2303      C2316   1.258       .  A
O2303     Co2311   1.959       .  S
O2304      C2317   1.275       .  A
O2304     Co2312   1.927       .  S
O2305     Co2313   1.949       .  S
O2306      C2319   1.272       .  A
O2307      C2319   1.255       .  A
O2307     Co2312   1.986   1_556  S
O2308      C2318   1.269       .  A
O2308     Co2311   2.018       .  S
O2309      C2316   1.271       .  A
O2309     Co2314   2.016       .  S
O2310      C2317   1.294       .  A
O2310     Co2313   2.105       .  S
Co2312     O2315   2.092   1_554  S
Co2313     O2315   2.003   1_554  S
C2316      C2658   1.486       .  S
C2317      C2741   1.500       .  S
C2318      C2962   1.474       .  S
C2319      C2706   1.498       .  S
O2320      C2328   1.271       .  A
O2320     Co2340   1.992       .  S
O2321      C2329   1.259       .  A
O2321     Co2341   1.979       .  S
O2322      C2330   1.273       .  A
O2322     Co2342   2.024       .  S
O2323      C2331   1.261       .  A
O2323     Co2343   2.005       .  S
O2324      C2330   1.258       .  A
O2324     Co2341   1.955       .  S
O2325      C2331   1.279       .  A
O2325     Co2340   2.039       .  S
O2326      C2329   1.254       .  A
O2327      C2328   1.265       .  A
C2328      C2597   1.492       .  S
C2329      C2821   1.479       .  S
C2330      C2661   1.480       .  S
C2331      C2626   1.496       .  S
O2332      C2345   1.267       .  A
O2332     Co2340   2.038       .  S
O2333      C2346   1.251       .  A
O2333     Co2341   2.016       .  S
O2334     Co2342   2.043       .  S
O2335      C2348   1.254       .  A
O2336      C2348   1.263       .  A
O2336     Co2341   2.000       .  S
O2337      C2347   1.264       .  A
O2337     Co2340   1.944       .  S
O2338      C2345   1.245   1_455  A
O2338     Co2343   1.944   1_455  S
O2339      C2346   1.245       .  A
O2339     Co2342   1.956       .  S
Co2341     O2344   2.143       .  S
Co2342     O2344   2.171       .  S
C2345      C2674   1.489   1_655  S
C2346      C2645   1.480       .  S
C2347      C2834   1.503       .  S
C2348      C2613   1.499       .  S
O2349      C2357   1.274       .  A
O2349     Co2369   2.049       .  S
O2350      C2358   1.286   1_556  A
O2350     Co2370   2.027       .  S
O2351      C2359   1.251       .  A
O2351     Co2371   1.958       .  S
O2352      C2360   1.255       .  A
O2352     Co2372   1.965       .  S
O2353      C2359   1.286       .  A
O2353     Co2370   2.054       .  S
O2354      C2360   1.256       .  A
O2354     Co2369   1.982       .  S
O2355      C2358   1.260       .  A
O2356     Co2371   1.971   1_554  S
C2357      C2933   1.484       .  S
C2358      C2565   1.464       .  S
C2359      C2709   1.488       .  S
C2360      C2546   1.463       .  S
O2361      C2374   1.271       .  A
O2361     Co2369   1.906       .  S
O2362      C2375   1.261       .  A
O2362     Co2370   1.877       .  S
O2363      C2376   1.261       .  A
O2364     Co2372   1.996   1_556  S
O2365      C2377   1.256       .  A
O2365     Co2370   2.008       .  S
O2366      C2376   1.257       .  A
O2366     Co2369   1.978   1_556  S
O2367      C2374   1.287       .  A
O2367     Co2372   2.064       .  S
O2368      C2375   1.293       .  A
O2368     Co2371   2.085       .  S
Co2369     O2373   2.003       .  S
Co2372     O2373   2.146       .  S
C2374      C2690   1.499       .  S
C2375      C2533   1.485       .  S
C2376      C2581   1.496       .  S
C2377      C2917   1.499       .  S
O2378      C2386   1.269       .  A
O2378     Co2398   2.045       .  S
O2379      C2387   1.269       .  A
O2379     Co2399   1.987       .  S
O2380      C2388   1.280       .  A
O2380     Co2400   1.958       .  S
O2381      C2389   1.253       .  A
O2381     Co2401   1.970       .  S
O2382      C2388   1.278       .  A
O2382     Co2399   2.016       .  S
O2383      C2389   1.266       .  A
O2383     Co2398   2.003       .  S
O2384      C2387   1.277       .  A
O2385     Co2400   1.987       .  S
C2386      C2805   1.497       .  S
C2387      C2501   1.516       .  S
C2388      C2610   1.498       .  S
C2389      C2530   1.487       .  S
O2390      C2403   1.257       .  A
O2390     Co2398   1.959       .  S
O2391      C2404   1.252   1_565  A
O2391     Co2399   1.978       .  S
O2392      C2405   1.279       .  A
O2393     Co2401   1.949       .  S
O2394      C2406   1.261   1_565  A
O2394     Co2399   2.015       .  S
O2395      C2405   1.244       .  A
O2395     Co2398   1.943       .  S
O2396      C2403   1.286       .  A
O2396     Co2401   2.077       .  S
O2397      C2404   1.250       .  A
O2397     Co2400   1.968   1_545  S
Co2398     O2402   2.076       .  S
Co2401     O2402   1.982       .  S
C2403      C2594   1.518       .  S
C2404      C2549   1.465       .  S
C2405      C2514   1.485       .  S
C2406      C2786   1.470       .  S
O2407      C2415   1.221       .  A
O2407     Co2427   1.929   1_554  S
O2408      C2416   1.279       .  A
O2408     Co2428   1.972       .  S
O2409      C2417   1.265       .  A
O2409     Co2429   2.011       .  S
O2410      C2418   1.247   1_554  A
O2410     Co2430   2.001   1_554  S
O2411      C2417   1.251       .  A
O2411     Co2428   1.960       .  S
O2412      C2418   1.259       .  A
O2412     Co2427   2.016       .  S
O2413      C2416   1.283   1_556  A
O2413     Co2430   1.962       .  S
O2414      C2415   1.245       .  A
O2414     Co2429   2.001       .  S
C2415      C2898   1.434       .  S
C2416      C2562   1.448       .  S
C2417      C2482   1.489       .  S
C2418      C2738   1.501   1_556  S
O2419      C2432   1.258       .  A
O2419     Co2427   1.936       .  S
O2420      C2433   1.284       .  A
O2420     Co2428   2.046       .  S
O2421      C2434   1.264   1_554  A
O2421     Co2429   1.947       .  S
O2422      C2435   1.248       .  A
O2422     Co2430   2.004       .  S
O2423      C2435   1.278   1_554  A
O2423     Co2428   2.021       .  S
O2424      C2434   1.281       .  A
O2424     Co2427   2.046       .  S
O2425      C2432   1.287       .  A
O2425     Co2430   2.064       .  S
O2426      C2433   1.248       .  A
O2426     Co2429   1.943       .  S
Co2427     O2431   2.019       .  S
Co2428     O2431   2.005   1_554  S
Co2429     O2431   2.145   1_554  S
Co2430     O2431   2.064       .  S
C2432      C2466   1.500       .  S
C2433      C2722   1.471       .  S
C2434      C2578   1.492       .  S
C2435      C2885   1.469       .  S
O2436      C2444   1.274       .  A
O2436     Co2456   2.038       .  S
O2437      C2445   1.240       .  A
O2437     Co2457   1.949       .  S
O2438      C2446   1.259       .  A
O2438     Co2458   1.954       .  S
O2439      C2447   1.260       .  A
O2439     Co2459   2.020       .  S
O2440      C2446   1.273       .  A
O2440     Co2457   2.036       .  S
O2441      C2447   1.239       .  A
O2441     Co2456   1.949       .  S
O2442      C2445   1.261       .  A
O2442     Co2459   2.028       .  S
O2443      C2444   1.259       .  A
O2443     Co2458   1.973       .  S
C2444      C2773   1.493       .  S
C2445      C2498   1.499       .  S
C2446      C2642   1.478       .  S
C2447      C2485   1.494       .  S
O2448      C2461   1.276       .  A
O2448     Co2456   1.919       .  S
O2449      C2462   1.266       .  A
O2449     Co2457   1.981       .  S
O2450      C2463   1.269       .  A
O2450     Co2458   2.032       .  S
O2451      C2464   1.293       .  A
O2451     Co2459   2.045       .  S
O2452      C2464   1.280       .  A
O2452     Co2457   1.966       .  S
O2453      C2463   1.266       .  A
O2453     Co2456   1.982       .  S
O2454      C2461   1.300       .  A
O2454     Co2459   2.080       .  S
O2455      C2462   1.264       .  A
O2455     Co2458   1.999       .  S
Co2456     O2460   1.961       .  S
Co2457     O2460   1.994       .  S
Co2458     O2460   2.068       .  S
Co2459     O2460   2.245       .  S
C2461      C2629   1.491       .  S
C2462      C2469   1.492       .  S
C2463      C2517   1.502       .  S
C2464      C2754   1.523       .  S
C2465      C2466   1.407       .  A
C2465      C2470   1.405       .  A
C2465      H2472   1.084       .  S
C2466      C2467   1.411       .  A
C2467      C2468   1.408       .  A
C2467      C2474   1.487       .  S
C2468      C2469   1.404       .  A
C2468      H2473   1.084       .  S
C2469      C2470   1.420       .  A
C2470      C2471   1.508       .  S
C2471      H2475   1.111       .  S
C2471      H2476   1.107       .  S
C2471      H2477   1.109       .  S
C2474      H2478   1.105       .  S
C2474      H2479   1.109       .  S
C2474      H2480   1.111       .  S
C2481      C2482   1.400       .  A
C2481      C2486   1.406       .  A
C2481      H2488   1.084       .  S
C2482      C2483   1.422       .  A
C2483      C2484   1.406       .  A
C2483      C2490   1.510       .  S
C2484      C2485   1.403       .  A
C2484      H2489   1.084       .  S
C2485      C2486   1.424       .  A
C2486      C2487   1.508       .  S
C2487      H2491   1.111       .  S
C2487      H2492   1.110       .  S
C2487      H2493   1.108       .  S
C2490      H2494   1.110       .  S
C2490      H2495   1.110       .  S
C2490      H2496   1.111       .  S
C2497      C2498   1.397       .  A
C2497      C2502   1.407       .  A
C2497      H2504   1.084       .  S
C2498      C2499   1.419       .  A
C2499      C2500   1.411       .  A
C2499      C2506   1.502       .  S
C2500      C2501   1.407       .  A
C2500      H2505   1.083       .  S
C2501      C2502   1.422       .  A
C2502      C2503   1.479       .  S
C2503      H2507   1.111       .  S
C2503      H2508   1.090       .  S
C2503      H2509   1.101       .  S
C2506      H2510   1.094       .  S
C2506      H2511   1.110       .  S
C2506      H2512   1.111       .  S
C2513      C2514   1.410       .  A
C2513      C2518   1.415       .  A
C2513      H2520   1.081       .  S
C2514      C2515   1.410       .  A
C2515      C2516   1.407       .  A
C2515      C2522   1.507       .  S
C2516      C2517   1.409       .  A
C2516      H2521   1.074       .  S
C2517      C2518   1.415       .  A
C2518      C2519   1.503       .  S
C2519      H2523   1.111       .  S
C2519      H2524   1.109       .  S
C2519      H2525   1.111       .  S
C2522      H2526   1.111       .  S
C2522      H2527   1.110       .  S
C2522      H2528   1.111       .  S
C2529      C2530   1.405       .  A
C2529      C2534   1.401       .  A
C2529      H2536   1.084       .  S
C2531      C2532   1.403       .  A
C2531      C2538   1.510       .  S
C2532      C2533   1.405       .  A
C2532      H2537   1.084       .  S
C2534      C2535   1.508       .  S
C2535      H2539   1.111       .  S
C2535      H2540   1.109       .  S
C2535      H2541   1.110       .  S
C2538      H2542   1.110       .  S
C2538      H2543   1.110       .  S
C2538      H2544   1.111       .  S
C2545      C2550   1.401       .  A
C2545      H2552   1.084       .  S
C2546      C2547   1.415       .  A
C2547      C2548   1.401       .  A
C2547      C2554   1.508       .  S
C2548      H2553   1.084       .  S
C2549      C2550   1.417   1_545  A
C2550      C2551   1.508       .  S
C2551      H2555   1.111       .  S
C2551      H2556   1.110       .  S
C2551      H2557   1.109       .  S
C2554      H2558   1.109       .  S
C2554      H2559   1.111       .  S
C2554      H2560   1.111       .  S
C2561      C2562   1.395       .  A
C2561      C2566   1.391       .  A
C2561      H2568   1.083       .  S
C2562      C2563   1.403       .  A
C2563      C2564   1.397       .  A
C2563      C2570   1.499       .  S
C2564      C2565   1.403       .  A
C2564      H2569   1.082       .  S
C2565      C2566   1.404       .  A
C2566      C2567   1.487       .  S
C2567      H2571   1.111       .  S
C2567      H2572   1.089       .  S
C2567      H2573   1.110       .  S
C2570      H2574   1.111       .  S
C2570      H2575   1.101   1_554  S
C2570      H2576   1.111       .  S
C2577      C2578   1.411       .  A
C2577      C2582   1.407       .  A
C2577      H2584   1.083       .  S
C2578      C2579   1.415       .  A
C2579      C2580   1.404       .  A
C2579      C2586   1.508       .  S
C2580      C2581   1.411       .  A
C2580      H2585   1.084       .  S
C2581      C2582   1.415       .  A
C2582      C2583   1.507       .  S
C2583      H2587   1.111       .  S
C2583      H2588   1.110       .  S
C2583      H2589   1.103       .  S
C2586      H2590   1.110       .  S
C2586      H2591   1.110       .  S
C2586      H2592   1.110       .  S
C2593      C2594   1.420       .  A
C2593      C2598   1.414       .  A
C2593      H2600   1.084       .  S
C2594      C2595   1.414       .  A
C2595      C2596   1.406       .  A
C2595      C2602   1.480       .  S
C2596      C2597   1.402       .  A
C2596      H2601   1.085       .  S
C2597      C2598   1.408       .  A
C2598      C2599   1.507       .  S
C2599      H2603   1.111       .  S
C2599      H2604   1.105       .  S
C2599      H2605   1.110       .  S
C2602      H2606   1.105       .  S
C2602      H2607   1.109       .  S
C2602      H2608   1.112       .  S
C2609      C2610   1.396       .  A
C2609      C2614   1.410       .  A
C2609      H2616   1.079       .  S
C2610      C2611   1.425       .  A
C2611      C2612   1.403       .  A
C2611      C2618   1.503       .  S
C2612      C2613   1.396       .  A
C2612      H2617   1.085       .  S
C2613      C2614   1.428       .  A
C2614      C2615   1.500       .  S
C2615      H2619   1.111       .  S
C2615      H2620   1.094       .  S
C2615      H2621   1.110       .  S
C2618      H2622   1.103       .  S
C2618      H2623   1.111       .  S
C2618      H2624   1.108       .  S
C2625      C2626   1.406       .  A
C2625      C2630   1.401       .  A
C2625      H2632   1.084       .  S
C2626      C2627   1.417       .  A
C2627      C2628   1.417       .  A
C2627      C2634   1.507       .  S
C2628      C2629   1.410       .  A
C2628      H2633   1.082       .  S
C2629      C2630   1.415       .  A
C2630      C2631   1.509       .  S
C2631      H2635   1.111       .  S
C2631      H2636   1.109       .  S
C2631      H2637   1.107       .  S
C2634      H2638   1.105       .  S
C2634      H2639   1.110       .  S
C2634      H2640   1.111       .  S
C2641      C2642   1.404       .  A
C2641      C2646   1.411       .  A
C2641      H2648   1.083       .  S
C2642      C2643   1.414       .  A
C2643      C2644   1.394       .  A
C2643      C2650   1.511       .  S
C2644      C2645   1.401       .  A
C2644      H2649   1.084       .  S
C2645      C2646   1.417       .  A
C2646      C2647   1.505       .  S
C2647      H2651   1.111       .  S
C2647      H2652   1.110       .  S
C2647      H2653   1.111       .  S
C2650      H2654   1.110       .  S
C2650      H2655   1.107       .  S
C2650      H2656   1.103       .  S
C2657      C2662   1.409       .  A
C2657      H2664   1.084       .  S
C2658      C2659   1.421       .  A
C2659      C2660   1.400       .  A
C2659      C2666   1.510       .  S
C2660      H2665   1.085       .  S
C2661      C2662   1.417       .  A
C2662      C2663   1.507       .  S
C2663      H2667   1.111       .  S
C2663      H2668   1.110       .  S
C2663      H2669   1.111       .  S
C2666      H2670   1.110       .  S
C2666      H2671   1.109       .  S
C2666      H2672   1.111       .  S
C2673      C2678   1.401       .  A
C2673      H2680   1.084       .  S
C2674      C2675   1.416   1_455  A
C2675      C2676   1.406       .  A
C2675      C2682   1.507       .  S
C2676      H2681   1.085       .  S
C2677      C2678   1.403       .  A
C2678      C2679   1.507       .  S
C2679      H2683   1.111       .  S
C2679      H2684   1.110       .  S
C2679      H2685   1.111       .  S
C2682      H2686   1.110       .  S
C2682      H2687   1.110       .  S
C2682      H2688   1.111       .  S
C2689      C2690   1.398       .  A
C2689      C2694   1.405       .  A
C2689      H2696   1.084       .  S
C2690      C2691   1.425       .  A
C2691      C2692   1.409       .  A
C2691      C2698   1.509       .  S
C2692      C2693   1.405       .  A
C2692      H2697   1.084       .  S
C2693      C2694   1.419       .  A
C2694      C2695   1.483       .  S
C2695      H2699   1.111       .  S
C2695      H2700   1.096       .  S
C2695      H2701   1.108       .  S
C2698      H2702   1.109       .  S
C2698      H2703   1.110       .  S
C2698      H2704   1.111       .  S
C2705      C2706   1.404   1_554  A
C2705      C2710   1.394       .  A
C2705      H2712   1.072       .  S
C2706      C2707   1.412       .  A
C2707      C2708   1.422       .  A
C2707      C2714   1.503       .  S
C2708      C2709   1.413       .  A
C2708      H2713   1.083       .  S
C2709      C2710   1.412   1_556  A
C2710      C2711   1.514       .  S
C2711      H2715   1.110       .  S
C2711      H2716   1.110       .  S
C2711      H2717   1.108       .  S
C2714      H2718   1.110       .  S
C2714      H2719   1.111       .  S
C2714      H2720   1.111       .  S
C2721      C2722   1.387       .  A
C2721      C2726   1.397       .  A
C2721      H2728   1.084       .  S
C2722      C2723   1.426   1_554  A
C2723      C2724   1.405       .  A
C2723      C2730   1.505       .  S
C2724      C2725   1.394       .  A
C2724      H2729   1.084       .  S
C2725      C2726   1.432   1_556  A
C2726      C2727   1.512       .  S
C2727      H2731   1.111       .  S
C2727      H2732   1.086       .  S
C2727      H2733   1.094       .  S
C2730      H2734   1.111       .  S
C2730      H2735   1.099       .  S
C2730      H2736   1.109       .  S
C2737      C2738   1.402   1_556  A
C2737      C2742   1.408       .  A
C2737      H2744   1.084       .  S
C2738      C2739   1.423       .  A
C2739      C2740   1.413       .  A
C2739      C2746   1.509       .  S
C2740      C2741   1.404       .  A
C2740      H2745   1.084       .  S
C2741      C2742   1.426   1_554  A
C2742      C2743   1.511       .  S
C2743      H2747   1.111       .  S
C2743      H2748   1.103       .  S
C2743      H2749   1.104       .  S
C2746      H2750   1.107       .  S
C2746      H2751   1.111       .  S
C2746      H2752   1.111       .  S
C2753      C2754   1.419       .  A
C2753      C2758   1.429       .  A
C2753      H2760   1.083       .  S
C2754      C2755   1.421       .  A
C2755      C2756   1.407       .  A
C2755      C2762   1.509       .  S
C2756      C2757   1.412       .  A
C2756      H2761   1.083       .  S
C2757      C2758   1.417       .  A
C2758      C2759   1.502       .  S
C2759      H2763   1.111       .  S
C2759      H2764   1.103       .  S
C2759      H2765   1.110       .  S
C2762      H2766   1.108       .  S
C2762      H2767   1.110       .  S
C2762      H2768   1.111       .  S
C2769      C2770   1.404       .  A
C2769      C2774   1.412       .  A
C2769      H2776   1.084       .  S
C2770      C2771   1.414       .  A
C2771      C2772   1.404       .  A
C2771      C2778   1.505       .  S
C2772      C2773   1.403       .  A
C2772      H2777   1.079       .  S
C2773      C2774   1.421       .  A
C2774      C2775   1.506       .  S
C2775      H2779   1.110       .  S
C2775      H2780   1.111       .  S
C2775      H2781   1.107       .  S
C2778      H2782   1.106       .  S
C2778      H2783   1.110       .  S
C2778      H2784   1.104       .  S
C2785      C2786   1.414       .  A
C2785      C2790   1.414   1_545  A
C2785      H2792   1.084   1_545  S
C2786      C2787   1.422       .  A
C2787      C2788   1.370       .  A
C2787      C2794   1.510       .  S
C2788      C2789   1.380   1_545  A
C2788      H2793   1.074       .  S
C2789      C2790   1.408       .  A
C2790      C2791   1.502       .  S
C2791      H2795   1.110       .  S
C2791      H2796   1.109       .  S
C2794      H2798   1.105   1_545  S
C2794      H2800   1.108       .  S
C2801      C2802   1.414       .  A
C2801      C2806   1.422       .  A
C2801      H2808   1.082       .  S
C2802      C2803   1.416       .  A
C2803      C2804   1.391       .  A
C2803      C2810   1.512       .  S
C2804      C2805   1.397       .  A
C2804      H2809   1.064       .  S
C2805      C2806   1.416       .  A
C2806      C2807   1.505       .  S
C2807      H2812   1.108       .  S
C2810      H2814   1.108       .  S
C2810      H2816   1.105       .  S
C2817      C2818   1.401       .  A
C2817      C2822   1.393       .  A
C2817      H2824   1.081       .  S
C2819      C2820   1.403       .  A
C2819      C2826   1.507       .  S
C2820      H2825   1.083       .  S
C2821      C2822   1.420       .  A
C2822      C2823   1.513       .  S
C2823      H2827   1.111       .  S
C2823      H2828   1.109       .  S
C2823      H2829   1.110       .  S
C2826      H2830   1.110       .  S
C2826      H2831   1.110       .  S
C2826      H2832   1.111       .  S
C2833      C2838   1.411       .  A
C2833      H2840   1.083       .  S
C2834      C2835   1.419       .  A
C2835      C2836   1.409       .  A
C2835      C2842   1.508       .  S
C2836      C2837   1.403       .  A
C2836      H2841   1.075       .  S
C2838      C2839   1.505       .  S
C2839      H2843   1.105       .  S
C2839      H2844   1.110       .  S
C2839      H2845   1.111       .  S
C2842      H2846   1.110       .  S
C2842      H2847   1.110       .  S
C2842      H2848   1.111       .  S
C2849      C2854   1.404       .  A
C2849      H2856   1.084       .  S
C2851      C2852   1.405       .  A
C2851      C2858   1.509       .  S
C2852      H2857   1.084       .  S
C2853      C2854   1.418   1_455  A
C2854      C2855   1.508       .  S
C2855      H2859   1.111       .  S
C2855      H2860   1.108       .  S
C2858      H2863   1.109       .  S
C2858      H2864   1.111       .  S
C2865      C2870   1.402       .  A
C2865      H2872   1.084       .  S
C2866      C2867   1.422       .  A
C2867      C2868   1.406       .  A
C2867      C2874   1.506       .  S
C2868      H2873   1.084       .  S
C2870      C2871   1.511       .  S
C2871      H2875   1.111       .  S
C2871      H2876   1.109   1_655  S
C2871      H2877   1.107       .  S
C2874      H2879   1.105       .  S
C2874      H2880   1.111       .  S
C2881      C2882   1.399       .  A
C2881      C2886   1.393       .  A
C2881      H2888   1.086       .  S
C2882      C2883   1.395   1_556  A
C2883      C2884   1.392       .  A
C2883      C2890   1.502       .  S
C2884      C2885   1.413   1_554  A
C2884      H2889   1.081       .  S
C2885      C2886   1.412       .  A
C2886      C2887   1.496       .  S
C2887      H2891   1.112       .  S
C2887      H2892   1.109       .  S
C2887      H2893   1.102       .  S
C2890      H2894   1.109       .  S
C2890      H2895   1.104       .  S
C2890      H2896   1.111       .  S
C2897      C2898   1.408   1_556  A
C2897      C2902   1.391       .  A
C2897      H2904   1.083       .  S
C2898      C2899   1.394       .  A
C2899      C2900   1.385       .  A
C2899      C2906   1.507       .  S
C2900      C2901   1.411   1_554  A
C2900      H2905   1.085       .  S
C2901      C2902   1.399       .  A
C2902      C2903   1.506       .  S
C2903      H2907   1.111       .  S
C2903      H2908   1.110       .  S
C2903      H2909   1.110       .  S
C2906      H2910   1.110       .  S
C2906      H2911   1.111       .  S
C2906      H2912   1.111       .  S
C2913      C2914   1.405       .  A
C2913      C2918   1.407       .  A
C2913      H2920   1.085   1_556  S
C2915      C2916   1.417       .  A
C2915      C2922   1.504       .  S
C2916      H2921   1.084       .  S
C2917      C2918   1.421       .  A
C2918      C2919   1.509   1_566  S
C2919      H2923   1.111   1_545  S
C2919      H2924   1.102       .  S
C2919      H2925   1.111       .  S
C2922      H2926   1.109       .  S
C2922      H2927   1.110       .  S
C2922      H2928   1.111       .  S
C2929      C2930   1.408       .  A
C2929      C2934   1.417       .  A
C2929      H2936   1.084       .  S
C2931      C2932   1.403       .  A
C2931      C2938   1.511   1_554  S
C2932      H2937   1.084   1_554  S
C2933      C2934   1.414       .  A
C2934      C2935   1.505       .  S
C2935      H2939   1.111       .  S
C2935      H2940   1.111       .  S
C2935      H2941   1.110       .  S
C2938      H2942   1.109       .  S
C2938      H2943   1.100       .  S
C2938      H2944   1.111       .  S
C2945      C2946   1.413       .  A
C2945      C2950   1.427   1_554  A
C2945      H2952   1.078       .  S
C2947      C2948   1.389       .  A
C2947      C2954   1.501       .  S
C2948      C2949   1.396   1_654  A
C2948      H2953   1.084   1_554  S
C2950      C2951   1.503       .  S
C2951      H2955   1.110       .  S
C2951      H2956   1.111   1_556  S
C2951      H2957   1.110       .  S
C2954      H2958   1.109       .  S
C2954      H2959   1.109       .  S
C2954      H2960   1.109       .  S
C2961      C2962   1.398       .  A
C2961      C2966   1.406       .  A
C2961      H2968   1.085       .  S
C2963      C2964   1.396       .  A
C2963      C2970   1.508       .  S
C2964      C2965   1.400       .  A
C2964      H2969   1.084       .  S
C2966      C2967   1.508       .  S
C2967      H2971   1.111       .  S
C2967      H2972   1.107       .  S
C2967      H2973   1.109       .  S
C2970      H2974   1.105       .  S
C2970      H2975   1.103       .  S
C2970      H2976   1.111       .  S
