geometry optimzed in LAMMPS
_audit_creation_date              2020-11-30 
_audit_creation_method            'lammps2cif' 
_symmetry_space_group_name_H-M    'P1' 
_symmetry_Int_Tables_number       1 
_symmetry_cell_setting            triclinic 
loop_ 
_symmetry_equiv_pos_as_xyz 
  x,y,z 
_cell_length_a                    52.66299698 
_cell_length_b                    52.671771466523104 
_cell_length_c                    28.144176604729875 
_cell_angle_alpha                 90.01087887869298 
_cell_angle_beta                  89.96948688942904 
_cell_angle_gamma                 120.16267710684343 
loop_ 
_atom_site_label 
_atom_site_type_symbol 
_atom_site_fract_x 
_atom_site_fract_y 
_atom_site_fract_z 
_atom_site_charge 
O1          O  0.47746650  0.05628618  0.57770069    -0.75400
O2          O  0.48863341  0.03199325  0.63343882    -0.54300
C3          C  0.48013679  0.05004357  0.62105338     0.78300
O4          O  0.42245810  0.94251898  0.41544655    -0.60000
O5          O  0.45878274  0.96861589  0.36170164    -0.53000
C6          C  0.43211510  0.94972169  0.37256331     0.70400
O7          O  0.41951479  0.94450936  0.57648849    -0.74500
O8          O  0.45485733  0.96864341  0.63265233    -0.55100
C9          C  0.42814382  0.95117223  0.61991610     0.76400
O10         O  0.48038335  0.05790381  0.41645605    -0.59700
O11         O  0.49039618  0.03169132  0.36256757    -0.52800
C12         C  0.48260347  0.05049660  0.37360107     0.73000
Zr13       Zr  0.48509507  0.04332276  0.49739326     2.54700
O14         O  0.43800881  0.04147931  0.49436719    -0.80300
O15         O  0.51255815  0.09677407  0.49873124    -0.93700
Zr16       Zr  0.44130693  0.95544122  0.49686335     2.64700
O17         O  0.39262691  0.95013428  0.49375617    -0.98600
O18         O  0.42060940  0.90240691  0.49819589    -0.80700
O19         O  0.46212247  0.99930279  0.54261332    -0.84000
O20         O  0.46320841  0.99952452  0.45184666    -2.18800
O21         O  0.58207766  0.05700943  0.42020355    -0.67400
O22         O  0.54682973  0.03113834  0.36469769    -0.52000
C23         C  0.57332267  0.04973546  0.37699592     0.71300
O24         O  0.52794507  0.94704889  0.58035246    -0.60300
O25         O  0.51279651  0.96859349  0.63507321    -0.52300
C26         C  0.52414489  0.95282067  0.62337392     0.73100
O27         O  0.52390719  0.94229753  0.42031661    -0.71700
O28         O  0.51535341  0.96862395  0.36443833    -0.50400
C29         C  0.52249936  0.94961274  0.37716738     0.74500
O30         O  0.58015471  0.05418505  0.58023612    -0.67100
O31         O  0.54390037  0.02946697  0.63484573    -0.54300
C32         C  0.57071745  0.04732276  0.62315105     0.72900
Zr33       Zr  0.56051775  0.04354121  0.49980008     2.77500
O34         O  0.60765101  0.04540356  0.50245007    -0.97800
O35         O  0.58369886  0.09679995  0.50254774    -0.78600
Zr36       Zr  0.51647834  0.95580753  0.50003075     2.70100
O37         O  0.55986066  0.95065311  0.49794804    -0.79900
O38         O  0.48454366  0.90283552  0.50585463    -0.99000
Zr39       Zr  0.49984554  0.99941088  0.58931797     2.21500
Zr40       Zr  0.50211059  0.99989625  0.40802802     2.11100
O41         O  0.53971883  0.99969805  0.45466528    -2.47700
O42         O  0.53845199  0.99968115  0.54518560    -0.79700
O43         O  0.52378774  0.04444144  0.45223866    -0.71900
O44         O  0.47789004  0.95471428  0.54517467    -2.32800
O45         O  0.52271974  0.04406662  0.54495761    -2.29000
O46         O  0.47920244  0.95508905  0.45171650    -0.73600
H47         H  0.44871449  0.99958133  0.43088951     0.78400
H48         H  0.46925572  0.93786986  0.56605535     0.79500
H49         H  0.55471797  0.99968253  0.43494570     0.81700
H50         H  0.53110334  0.06088892  0.56581017     0.79300
H51         H  0.41139142  0.89614984  0.52991418     0.42300
H52         H  0.47814312  0.89630145  0.47282455     0.41300
H53         H  0.57651682  0.97097876  0.50120442     0.41000
H54         H  0.60574849  0.03035119  0.47937902     0.38900
H55         H  0.57185433  0.10144305  0.48072524     0.42000
H56         H  0.52678955  0.10191939  0.52504889     0.36800
H57         H  0.42328777  0.02026696  0.49300336     0.42900
H58         H  0.39335299  0.96250867  0.46671528     0.39400
H59         H  0.62175029  0.06439465  0.48758693     0.44300
H60         H  0.49833911  0.10239983  0.51047662     0.43000
H61         H  0.37947467  0.92970501  0.48297201     0.43100
H62         H  0.49797961  0.89537265  0.51344395     0.43500
O63         O  0.05509537  0.57972632  0.58114550    -0.75400
O64         O  0.02808900  0.54394652  0.63546610    -0.54300
C65         C  0.04676497  0.57047214  0.62388815     0.78300
O66         O  0.94392152  0.52486164  0.42078886    -0.60000
O67         O  0.96846327  0.51344271  0.36598538    -0.53000
C68         C  0.95066974  0.52239336  0.37770954     0.70400
O69         O  0.94408360  0.52455450  0.58155320    -0.74500
O70         O  0.96706116  0.51094593  0.63615276    -0.55100
C71         C  0.94989210  0.52062976  0.62447158     0.76400
O72         O  0.05817448  0.57964696  0.41951274    -0.59700
O73         O  0.03201167  0.54358171  0.36538636    -0.52800
C74         C  0.05097688  0.57011380  0.37654348     0.73000
Zr75       Zr  0.04431049  0.55972782  0.50039342     2.54700
O76         O  0.04826105  0.60779326  0.49982564    -0.80300
O77         O  0.09758117  0.58235341  0.50203829    -0.93700
Zr78       Zr  0.95636815  0.51683984  0.50095487     2.64700
O79         O  0.95710722  0.56326596  0.50766510    -0.98600
O80         O  0.90294707  0.48846454  0.49951337    -0.80700
O81         O  0.00033949  0.53862815  0.54574896    -0.84000
O82         O  0.00030697  0.53912609  0.45538638    -2.18800
O83         O  0.05455815  0.47545070  0.41946397    -0.67400
O84         O  0.03040474  0.48768627  0.36508634    -0.52000
C85         C  0.04783137  0.47824927  0.37646062     0.71300
O86         O  0.94639602  0.41944907  0.57970184    -0.60300
O87         O  0.96930092  0.45570834  0.63492542    -0.52300
C88         C  0.95305867  0.42873411  0.62282170     0.73100
O89         O  0.94135711  0.42102819  0.41832111    -0.71700
O90         O  0.96783661  0.45720091  0.36444688    -0.50400
C91         C  0.94888958  0.43060090  0.37540588     0.74500
O92         O  0.05666055  0.47799251  0.58121306    -0.67100
O93         O  0.03114791  0.48847785  0.63560643    -0.54300
C94         C  0.04981165  0.48058283  0.62423711     0.72900
Zr95       Zr  0.04261696  0.48345170  0.50036335     2.77500
O96         O  0.04022645  0.43622778  0.50632619    -0.97800
O97         O  0.09602472  0.51046348  0.49526641    -0.78600
Zr98       Zr  0.95474133  0.44050176  0.49967031     2.70100
O99         O  0.94874005  0.39163026  0.49586691    -0.79900
O100        O  0.90175497  0.41899830  0.50590599    -0.99000
Zr101      Zr  0.99914596  0.49982302  0.59030268     2.21500
Zr102      Zr  0.99949282  0.50039088  0.41047115     2.11100
O103        O  0.99874985  0.46150933  0.45477162    -2.47700
O104        O  0.99857158  0.46140644  0.54524989    -0.79700
O105        O  0.04417122  0.52197152  0.45428553    -0.71900
O106        O  0.95446469  0.47793457  0.54635202    -2.32800
O107        O  0.04408849  0.52191117  0.54666600    -2.29000
O108        O  0.95476305  0.47847407  0.45417521    -0.73600
H109        H  0.00069093  0.55408353  0.43498424     0.78400
H110        H  0.93759096  0.46948723  0.56717059     0.79500
H111        H  0.99838166  0.44667133  0.43416136     0.81700
H112        H  0.06076831  0.53016717  0.56775368     0.79300
H113        H  0.89699366  0.50136727  0.48339830     0.42300
H114        H  0.89739328  0.43216083  0.48690692     0.41300
H115        H  0.96871085  0.39484373  0.50137540     0.41000
H116        H  0.02469317  0.42331764  0.48368682     0.38900
H117        H  0.10282964  0.50496012  0.52418532     0.42000
H118        H  0.10170571  0.57226279  0.52799173     0.36800
H119        H  0.02953037  0.60435099  0.51379748     0.42900
H120        H  0.97101600  0.57593461  0.48281588     0.39400
H121        H  0.05878887  0.43947149  0.49199268     0.44300
H122        H  0.10461898  0.60242399  0.51430848     0.43000
H123        H  0.93752381  0.55895411  0.49646244     0.43100
H124        H  0.89358665  0.40070830  0.48698108     0.43500
O125        O  0.52518651  0.58074523  0.57946928    -0.75400
O126        O  0.51494317  0.54505947  0.63456271    -0.54300
C127        C  0.52324334  0.57165040  0.62256462     0.78300
O128        O  0.42028213  0.47652994  0.42041301    -0.60000
O129        O  0.45582984  0.48648723  0.36530682    -0.53000
C130        C  0.42928021  0.47838979  0.37728934     0.70400
O131        O  0.42033401  0.47628637  0.58081394    -0.74500
O132        O  0.45675768  0.48863376  0.63542537    -0.55100
C133        C  0.42986910  0.47909698  0.62374572     0.76400
O134        O  0.52667606  0.58033133  0.41863398    -0.59700
O135        O  0.51343318  0.54345769  0.36478677    -0.52800
C136        C  0.52363010  0.57054942  0.37580911     0.73000
Zr137      Zr  0.51736104  0.56018695  0.49919591     2.54700
O138        O  0.48795369  0.58398550  0.49725665    -0.80300
O139        O  0.56328771  0.60694653  0.49811760    -0.93700
Zr140      Zr  0.44090781  0.48587318  0.50057021     2.64700
O141        O  0.42087868  0.51864706  0.50338296    -0.98600
O142        O  0.39165592  0.44324065  0.49925723    -0.80700
O143        O  0.47891295  0.52370480  0.54644448    -0.84000
O144        O  0.47852923  0.52318620  0.45348542    -2.18800
O145        O  0.57944562  0.52197485  0.41919441    -0.67400
O146        O  0.54309383  0.51062565  0.36509384    -0.52000
C147        C  0.56982381  0.51909543  0.37627204     0.71300
O148        O  0.47697064  0.42052769  0.58163445    -0.60300
O149        O  0.48629715  0.45656068  0.63564480    -0.52300
C150        C  0.47865708  0.43004799  0.62433093     0.73100
O151        O  0.47076502  0.41871470  0.42134782    -0.71700
O152        O  0.48516709  0.45520792  0.36624978    -0.50400
C153        C  0.47416915  0.42818868  0.37827469     0.74500
O154        O  0.57956798  0.52148376  0.58008027    -0.67100
O155        O  0.54363043  0.51113956  0.63482231    -0.54300
C156        C  0.57015271  0.51910235  0.62305279     0.72900
Zr157      Zr  0.55941717  0.51458516  0.49970289     2.77500
O158        O  0.58281781  0.48479717  0.49750976    -0.97800
O159        O  0.60663043  0.55993593  0.50121694    -0.78600
Zr160      Zr  0.48274484  0.44003131  0.50107909     2.70100
O161        O  0.51079362  0.41485936  0.49626797    -0.79900
O162        O  0.43638998  0.39426258  0.51041134    -0.99000
Zr163      Zr  0.50037425  0.50054616  0.59018620     2.21500
Zr164      Zr  0.49975800  0.49959638  0.41027168     2.11100
O165        O  0.52128197  0.47657228  0.45433999    -2.47700
O166        O  0.52167377  0.47712336  0.54665078    -0.79700
O167        O  0.53881772  0.53767523  0.45414463    -0.71900
O168        O  0.46152504  0.46267865  0.54559308    -2.32800
O169        O  0.53902247  0.53809515  0.54451059    -2.29000
O170        O  0.46107183  0.46211812  0.45567030    -0.73600
H171        H  0.47046522  0.53176492  0.43233153     0.78400
H172        H  0.44669873  0.44796654  0.56606757     0.79500
H173        H  0.52916198  0.46763234  0.43350785     0.81700
H174        H  0.55407152  0.55275929  0.56473881     0.79300
H175        H  0.39450497  0.42658203  0.50762287     0.42300
H176        H  0.42246450  0.39654845  0.48974078     0.41300
H177        H  0.51962505  0.41727340  0.52818245     0.41000
H178        H  0.60095218  0.49595859  0.51653313     0.38900
H179        H  0.60168545  0.57563417  0.49730788     0.42000
H180        H  0.57588857  0.60476149  0.52193195     0.36800
H181        H  0.47335942  0.57439565  0.52299682     0.42900
H182        H  0.42674572  0.52944666  0.47288669     0.39400
H183        H  0.57001598  0.46742418  0.51722804     0.44300
H184        H  0.55846182  0.62117916  0.51243287     0.43000
H185        H  0.39937199  0.50548502  0.50067741     0.43100
H186        H  0.43947027  0.37930845  0.49432819     0.43500
O187        O  0.78752284  0.49372134  0.99923278    -0.75400
O188        O  0.83584748  0.52940849  0.00238419    -0.54300
C189        C  0.81513180  0.50243065  0.99930792     0.78300
O190        O  0.74093040  0.56902051  0.87008791    -0.60000
O191        O  0.71204854  0.57133761  0.92828905    -0.53000
C192        C  0.71747708  0.56842649  0.88468079     0.70400
O193        O  0.82528319  0.56711643  0.87023954    -0.74500
O194        O  0.85769477  0.57233908  0.92805231    -0.55100
C195        C  0.84894564  0.56802101  0.88463213     0.76400
O196        O  0.70325083  0.49535207  0.01750065    -0.59700
O197        O  0.69159171  0.53131287  0.00852297    -0.52800
C198        C  0.68474611  0.50452237  0.01593737     0.73000
Zr199      Zr  0.75583347  0.51473152  0.00742369     2.54700
O200        O  0.73145269  0.47478371  0.95058195    -0.80300
O201        O  0.74151083  0.48045534  0.07364188    -0.93700
Zr202      Zr  0.78571498  0.57324076  0.90254606     2.64700
O203        O  0.76762374  0.53633060  0.83991946    -0.98600
O204        O  0.80619382  0.61320899  0.84509640    -0.80700
O205        O  0.79485511  0.54329116  0.95430206    -0.84000
O206        O  0.74593026  0.54319294  0.95376222    -2.18800
O207        O  0.74233121  0.57027757  0.13197157    -0.67400
O208        O  0.71341548  0.57334761  0.07457494    -0.52000
C209        C  0.71888731  0.56979995  0.11772392     0.71300
O210        O  0.87197219  0.65850740  0.99838740    -0.60300
O211        O  0.88237409  0.62125119  0.99928330    -0.52300
C212        C  0.88993921  0.64859161  0.99821693     0.73100
O213        O  0.78615454  0.65911255  0.99628811    -0.71700
O214        O  0.73836243  0.62204125  0.00064118    -0.50400
C215        C  0.75826169  0.64933435  0.99858038     0.74500
O216        O  0.82975543  0.57535595  0.13367538    -0.67100
O217        O  0.85879592  0.57366540  0.07522003    -0.54300
C218        C  0.85177477  0.57316888  0.11910243     0.72900
Zr219      Zr  0.78963522  0.58039511  0.10074724     2.77500
O220        O  0.80991631  0.62681739  0.14322404    -0.97800
O221        O  0.77926494  0.55722327  0.17866832    -0.78600
Zr222      Zr  0.81858359  0.63808779  0.99602142     2.70100
O223        O  0.83970146  0.68047448  0.04875651    -0.79900
O224        O  0.83519786  0.66898336  0.92549440    -0.99000
Zr225      Zr  0.83577495  0.57562305  0.00189128     2.21500
Zr226      Zr  0.73857654  0.57627328  0.00147156     2.11100
O227        O  0.77931977  0.60962433  0.04943168    -2.47700
O228        O  0.82931806  0.60956902  0.04932365    -0.79700
O229        O  0.74834936  0.54729217  0.05503482    -0.71900
O230        O  0.82706871  0.60573152  0.94862135    -2.32800
O231        O  0.79654369  0.54636359  0.05520120    -2.29000
O232        O  0.77745858  0.60624631  0.94825434    -0.73600
H233        H  0.72854181  0.53023589  0.93578416     0.78400
H234        H  0.84371798  0.61684679  0.92808555     0.79500
H235        H  0.77447276  0.62196571  0.06820372     0.81700
H236        H  0.80115243  0.53434506  0.07522076     0.79300
H237        H  0.81119870  0.60512015  0.81719439     0.42300
H238        H  0.81706483  0.66317624  0.90711344     0.41300
H239        H  0.84807112  0.67478050  0.07541095     0.41000
H240        H  0.79968149  0.62155379  0.17426109     0.38900
H241        H  0.77252421  0.53633266  0.17190210     0.42000
H242        H  0.75989401  0.48149290  0.08444047     0.36800
H243        H  0.73982699  0.48391517  0.91945283     0.42900
H244        H  0.74705715  0.52215988  0.84883441     0.39400
H245        H  0.83029843  0.63194310  0.15079883     0.44300
H246        H  0.73008540  0.46082397  0.05879591     0.43000
H247        H  0.76603724  0.54651104  0.81148049     0.43100
H248        H  0.84126568  0.68892880  0.93737392     0.43500
O249        O  0.70394509  0.20969923  0.99510957    -0.75400
O250        O  0.69207250  0.16175796  0.00189496    -0.54300
C251        C  0.68538112  0.18209557  0.99823751     0.78300
O252        O  0.82836757  0.25503517  0.86469705    -0.60000
O253        O  0.85869568  0.28515176  0.92289315    -0.53000
C254        C  0.85114932  0.27868320  0.87908817     0.70400
O255        O  0.74314818  0.16963527  0.86542494    -0.74500
O256        O  0.71368214  0.14026809  0.92507100    -0.55100
C257        C  0.71951338  0.14718465  0.88095850     0.76400
O258        O  0.78878591  0.29478178  0.00218765    -0.59700
O259        O  0.83705189  0.30770745  0.99720731    -0.52800
C260        C  0.81634143  0.31389380  0.00020462     0.73000
Zr261      Zr  0.75673017  0.24180473  0.99892528     2.54700
O262        O  0.74085753  0.26190373  0.93524849    -0.80300
O263        O  0.73595211  0.25836968  0.06058100    -0.93700
Zr264      Zr  0.78720032  0.21127456  0.89858467     2.64700
O265        O  0.76775572  0.22949183  0.83729371    -0.98600
O266        O  0.80660295  0.19100276  0.84073818    -0.80700
O267        O  0.74703290  0.20208451  0.94815481    -0.84000
O268        O  0.79606253  0.25156777  0.94755584    -2.18800
O269        O  0.82810224  0.25680535  0.13041632    -0.67400
O270        O  0.85745013  0.28698046  0.07134757    -0.52000
C271        C  0.85016300  0.28091567  0.11532425     0.71300
O272        O  0.78624996  0.12753080  0.99823360    -0.60300
O273        O  0.73839469  0.11665408  0.99534320    -0.52300
C274        C  0.75827245  0.10934375  0.99666201     0.73100
O275        O  0.87280799  0.21487363  0.99866508    -0.71700
O276        O  0.88288012  0.26244658  0.00134145    -0.50400
C277        C  0.89062593  0.24285478  0.00155882     0.74500
O278        O  0.74585476  0.16752567  0.13148831    -0.67100
O279        O  0.71584719  0.13795456  0.07261663    -0.54300
C280        C  0.72267635  0.14426124  0.11667396     0.72900
Zr281      Zr  0.78829987  0.21104960  0.09779169     2.77500
O282        O  0.81047255  0.19278850  0.15414997    -0.97800
O283        O  0.76843392  0.22715572  0.16150059    -0.78600
Zr284      Zr  0.81923529  0.18124774  0.99670649     2.70100
O285        O  0.83942544  0.16259039  0.05596278    -0.79900
O286        O  0.83603936  0.16340957  0.93087649    -0.99000
Zr287      Zr  0.73885279  0.16261892  0.99880699     2.21500
Zr288      Zr  0.83630120  0.26102629  0.99754431     2.11100
O289        O  0.82843696  0.22104814  0.04767127    -2.47700
O290        O  0.77926742  0.17104689  0.04804775    -0.79700
O291        O  0.79659872  0.25130869  0.04902919    -0.71900
O292        O  0.77858401  0.17125246  0.94754700    -2.32800
O293        O  0.74769543  0.20226299  0.04983339    -2.29000
O294        O  0.82834695  0.22136015  0.94660847    -0.73600
H295        H  0.80049183  0.26846580  0.92825351     0.78400
H296        H  0.77346118  0.15433468  0.92781190     0.79500
H297        H  0.84548926  0.22642786  0.06721555     0.81700
H298        H  0.73086670  0.19731821  0.06969703     0.79300
H299        H  0.82783150  0.20056781  0.84806293     0.42300
H300        H  0.85355400  0.18108694  0.91828260     0.41300
H301        H  0.85000545  0.17902836  0.07857432     0.41000
H302        H  0.83155641  0.20284799  0.14567340     0.38900
H303        H  0.76597669  0.24291925  0.14703570     0.42000
H304        H  0.73309664  0.27360448  0.04498385     0.36800
H305        H  0.73698652  0.24849384  0.90808509     0.42900
H306        H  0.77445175  0.25006633  0.84640533     0.39400
H307        H  0.80983568  0.20153924  0.18494974     0.44300
H308        H  0.75229435  0.26938855  0.08316798     0.43000
H309        H  0.77920916  0.23110290  0.80840124     0.43100
H310        H  0.84395528  0.15191596  0.94622025     0.43500
O311        O  0.29388116  0.78511143  0.00557556    -0.75400
O312        O  0.30729250  0.83347479  0.99947568    -0.54300
C313        C  0.31324310  0.81265002  0.00349859     0.78300
O314        O  0.16865751  0.74173643  0.86600114    -0.60000
O315        O  0.13805026  0.71355165  0.92549828    -0.53000
C316        C  0.14497805  0.71923532  0.88137583     0.70400
O317        O  0.25582222  0.82583590  0.86525375    -0.74500
O318        O  0.28647982  0.85514725  0.92401990    -0.55100
C319        C  0.27978126  0.84813835  0.88008732     0.76400
O320        O  0.20612056  0.70169546  0.01308609    -0.59700
O321        O  0.15863389  0.69073817  0.00348070    -0.52800
C322        C  0.17829569  0.68360964  0.01106446     0.73000
Zr323      Zr  0.24043303  0.75387456  0.00191112     2.54700
O324        O  0.25519061  0.73372681  0.93671987    -0.80300
O325        O  0.25738424  0.73226967  0.06150796    -0.93700
Zr326      Zr  0.21177089  0.78469212  0.89916225     2.64700
O327        O  0.23160918  0.76568048  0.83983493    -0.98600
O328        O  0.19245954  0.80448142  0.84033554    -0.80700
O329        O  0.25150930  0.79329394  0.94957080    -0.84000
O330        O  0.20139286  0.74449741  0.94960869    -2.18800
O331        O  0.17070347  0.74219564  0.13041341    -0.67400
O332        O  0.13998285  0.71258000  0.07218652    -0.52000
C333        C  0.14816324  0.71840611  0.11573807     0.71300
O334        O  0.21620988  0.87178964  0.99346929    -0.60300
O335        O  0.26344575  0.88110737  0.99622566    -0.52300
C336        C  0.24428663  0.88946105  0.99421599     0.73100
O337        O  0.12792895  0.78646406  0.99607792    -0.71700
O338        O  0.11619182  0.73844423  0.99971627    -0.50400
C339        C  0.10928177  0.75861642  0.99816465     0.74500
O340        O  0.25593768  0.82729728  0.13133228    -0.67100
O341        O  0.28675769  0.85623461  0.07261508    -0.54300
C342        C  0.28049637  0.84884600  0.11656147     0.72900
Zr343      Zr  0.21025093  0.78797300  0.09796259     2.77500
O344        O  0.18857406  0.81038689  0.14667395    -0.97800
O345        O  0.22242324  0.77023464  0.16922675    -0.78600
Zr346      Zr  0.18185037  0.81842018  0.99509234     2.70100
O347        O  0.16304867  0.83938510  0.05265293    -0.79900
O348        O  0.16588810  0.83545054  0.92720466    -0.99000
Zr349      Zr  0.26133556  0.83405372  0.99858079     2.21500
Zr350      Zr  0.16181139  0.73810776  0.99884520     2.11100
O351        O  0.17049680  0.77877813  0.04778644    -2.47700
O352        O  0.22144886  0.82812626  0.04711921    -0.79700
O353        O  0.20096602  0.74707554  0.05064446    -0.71900
O354        O  0.22205392  0.82592182  0.94674964    -2.32800
O355        O  0.25046461  0.79430448  0.05098712    -2.29000
O356        O  0.17141114  0.77739537  0.94651170    -0.73600
H357        H  0.19610422  0.72707840  0.93116648     0.78400
H358        H  0.22783233  0.84279102  0.92655008     0.79500
H359        H  0.15353822  0.77424765  0.06704693     0.81700
H360        H  0.26697434  0.79838114  0.07099296     0.79300
H361        H  0.19897222  0.82473275  0.85111362     0.42300
H362        H  0.15488621  0.81782010  0.90701507     0.41300
H363        H  0.17593530  0.84378294  0.08069744     0.41000
H364        H  0.18657045  0.80162914  0.17855760     0.38900
H365        H  0.22921823  0.75697246  0.15721929     0.42000
H366        H  0.26599762  0.74722310  0.08694730     0.36800
H367        H  0.26904768  0.75106665  0.91779331     0.42900
H368        H  0.22663947  0.74603412  0.85177430     0.39400
H369        H  0.20439670  0.83107703  0.15038627     0.44300
H370        H  0.27429917  0.73199912  0.04669596     0.43000
H371        H  0.21892730  0.76165912  0.81161350     0.43100
H372        H  0.15069025  0.83933161  0.94018091     0.43500
O373        O  0.57375323  0.82771836  0.86561209    -0.75400
O374        O  0.57511524  0.85890292  0.92304787    -0.54300
C375        C  0.57287562  0.85053968  0.87956974     0.78300
O376        O  0.49468794  0.70369105  0.98825198    -0.60000
O377        O  0.53103576  0.69246740  0.99734691    -0.53000
C378        C  0.50410495  0.68546787  0.99182405     0.70400
O379        O  0.49434388  0.78899026  0.98211280    -0.74500
O380        O  0.53003038  0.83686068  0.99215146    -0.55100
C381        C  0.50326371  0.81658955  0.98512482     0.76400
O382        O  0.57799104  0.74450666  0.86683527    -0.59700
O383        O  0.57584510  0.71453294  0.92683924    -0.52800
C384        C  0.57591043  0.72052740  0.88262393     0.73000
Zr385      Zr  0.58146821  0.78943784  0.89899456     2.54700
O386        O  0.55488757  0.77494783  0.82400347    -0.80300
O387        O  0.62744073  0.81467524  0.85498753    -0.93700
Zr388      Zr  0.51458263  0.75660019  0.99017872     2.64700
O389        O  0.48020918  0.73927365  0.92391963    -0.98600
O390        O  0.47500177  0.73851992  0.04826011    -0.80700
O391        O  0.54749877  0.79708728  0.94317739    -0.84000
O392        O  0.54738194  0.74841380  0.94429518    -2.18800
O393        O  0.65856176  0.78613490  0.00096739    -0.67400
O394        O  0.62146754  0.73835464  0.00063984    -0.52000
C395        C  0.64875858  0.75822662  0.99950588     0.71300
O396        O  0.56974760  0.82782917  0.12919314    -0.60300
O397        O  0.57117567  0.85798990  0.07028799    -0.52300
C398        C  0.56952326  0.85082816  0.11428768     0.73100
O399        O  0.56793922  0.74150729  0.13096999    -0.71700
O400        O  0.57190461  0.71343882  0.07310277    -0.50400
C401        C  0.56870442  0.71869190  0.11665125     0.74500
O402        O  0.65779672  0.87197635  0.00840282    -0.67100
O403        O  0.62050750  0.88226566  0.00515720    -0.54300
C404        C  0.64773724  0.88981356  0.00840312     0.72900
Zr405      Zr  0.63778940  0.81870874  0.00626230     2.77500
O406        O  0.66838566  0.83296472  0.07726497    -0.97800
O407        O  0.68093024  0.84249859  0.95532937    -0.78600
Zr408      Zr  0.57137227  0.78572146  0.09745619     2.70100
O409        O  0.60763717  0.80390198  0.16098148    -0.79900
O410        O  0.53040846  0.76655554  0.15309236    -0.99000
Zr411      Zr  0.57551338  0.83587281  0.99740872     2.21500
Zr412      Zr  0.57608906  0.73913566  0.99946008     2.11100
O413        O  0.60520126  0.77774530  0.05350209    -2.47700
O414        O  0.60471684  0.82698627  0.05199277    -0.79700
O415        O  0.61021301  0.77958253  0.95229673    -0.71900
O416        O  0.54207114  0.79513992  0.04445686    -2.32800
O417        O  0.60982193  0.82911752  0.95125672    -2.29000
O418        O  0.54231117  0.74633439  0.04529626    -0.73600
H419        H  0.53598470  0.73177618  0.92383855     0.78400
H420        H  0.52897255  0.79948079  0.06210299     0.79500
H421        H  0.61610376  0.77215108  0.07428630     0.81700
H422        H  0.62239939  0.84654570  0.93304800     0.79300
H423        H  0.47770831  0.72450598  0.06800498     0.42300
H424        H  0.51589504  0.74714929  0.13997329     0.41300
H425        H  0.59598146  0.79992004  0.19047889     0.41000
H426        H  0.65592389  0.81906622  0.10228030     0.38900
H427        H  0.67408919  0.84797987  0.92642079     0.42000
H428        H  0.62252868  0.82185945  0.82586575     0.36800
H429        H  0.53452716  0.76954606  0.83249618     0.42900
H430        H  0.48835826  0.73095537  0.90103359     0.39400
H431        H  0.68347936  0.82750174  0.07055898     0.44300
H432        H  0.63082301  0.79879921  0.84378122     0.43000
H433        H  0.46223690  0.72207843  0.93652699     0.43100
H434        H  0.53783273  0.76195925  0.18224612     0.43500
O435        O  0.21177502  0.50870124  0.00194942    -0.75400
O436        O  0.16366875  0.47244805  0.00392930    -0.54300
C437        C  0.18407943  0.49955425  0.00294080     0.78300
O438        O  0.25598221  0.42982444  0.86701178    -0.60000
O439        O  0.28658324  0.42988320  0.92421572    -0.53000
C440        C  0.27977262  0.43080891  0.88063234     0.70400
O441        O  0.17629727  0.43955247  0.87261560    -0.74500
O442        O  0.14300081  0.43231236  0.93054216    -0.55100
C443        C  0.15296917  0.43892307  0.88787737     0.76400
O444        O  0.29728310  0.50917500  0.00223817    -0.59700
O445        O  0.30913504  0.47314576  0.99820443    -0.52800
C446        C  0.31590232  0.50020400  0.00016490     0.73000
Zr447      Zr  0.24443513  0.48866212  0.00261348     2.54700
O448        O  0.26226643  0.52577371  0.94039767    -0.80300
O449        O  0.26403957  0.52551524  0.06532667    -0.93700
Zr450      Zr  0.21246912  0.42748721  0.90170470     2.64700
O451        O  0.22830472  0.45873552  0.83135623    -0.98600
O452        O  0.18551538  0.38458755  0.85114343    -0.80700
O453        O  0.20446322  0.45854443  0.95259814    -0.84000
O454        O  0.25335077  0.45912503  0.94965430    -2.18800
O455        O  0.26054801  0.43350912  0.13102896    -0.67400
O456        O  0.28827888  0.43047667  0.07148384    -0.52000
C457        C  0.28353533  0.43355325  0.11532775     0.71300
O458        O  0.12887122  0.34436298  0.00428586    -0.60300
O459        O  0.11853393  0.38163959  0.00212593    -0.52300
C460        C  0.11085567  0.35431016  0.00363605     0.73100
O461        O  0.21619503  0.34504854  0.99583964    -0.71700
O462        O  0.26375579  0.38268491  0.99633604    -0.50400
C463        C  0.24426343  0.35524619  0.99545467     0.74500
O464        O  0.17331367  0.42948185  0.13500611    -0.67100
O465        O  0.14260439  0.42864480  0.07723654    -0.54300
C466        C  0.15035996  0.43008325  0.12087375     0.72900
Zr467      Zr  0.21382482  0.42565547  0.10057248     2.77500
O468        O  0.19434198  0.38159197  0.14928852    -0.97800
O469        O  0.22735938  0.45404385  0.17385864    -0.78600
Zr470      Zr  0.18258106  0.36502653  0.99982480     2.70100
O471        O  0.16678393  0.32790907  0.06181880    -0.79900
O472        O  0.16181999  0.32889590  0.93634479    -0.99000
Zr473      Zr  0.16494473  0.42711849  0.00306903     2.21500
Zr474      Zr  0.26241744  0.42773407  0.99873487     2.11100
O475        O  0.22309829  0.39538557  0.04973923    -2.47700
O476        O  0.17303053  0.39485916  0.05201195    -0.79700
O477        O  0.25397431  0.45797329  0.05171612    -0.71900
O478        O  0.17244936  0.39579950  0.95087673    -2.32800
O479        O  0.20513577  0.45797957  0.05370781    -2.29000
O480        O  0.22227998  0.39611585  0.94882425    -0.73600
H481        H  0.27007481  0.47153836  0.92992489     0.78400
H482        H  0.15523053  0.38418151  0.93159485     0.79500
H483        H  0.22864096  0.38354728  0.06848288     0.81700
H484        H  0.20065376  0.47011639  0.07364298     0.79300
H485        H  0.20082581  0.38149599  0.83642860     0.42300
H486        H  0.17746903  0.33601350  0.91195228     0.41300
H487        H  0.16240080  0.33672779  0.08941284     0.41000
H488        H  0.21151706  0.37933060  0.15637859     0.38900
H489        H  0.23179623  0.47388299  0.16387952     0.42000
H490        H  0.24688287  0.52113340  0.08543693     0.36800
H491        H  0.24778650  0.51667429  0.91437404     0.42900
H492        H  0.24878102  0.47422261  0.83811653     0.39400
H493        H  0.18952664  0.38733448  0.18000950     0.44300
H494        H  0.26907443  0.54416111  0.04914289     0.43000
H495        H  0.22992200  0.44670197  0.80579485     0.43100
H496        H  0.16095055  0.31106822  0.94960201     0.43500
O497        O  0.43156980  0.17569252  0.86619216    -0.75400
O498        O  0.43087962  0.14477213  0.92339894    -0.54300
C499        C  0.43301936  0.15310609  0.87985106     0.78300
O500        O  0.50601666  0.29758347  0.00603515    -0.60000
O501        O  0.46978440  0.30925149  0.00590225    -0.53000
C502        C  0.49696246  0.31616518  0.00663896     0.70400
O503        O  0.50743229  0.21317856  0.00503810    -0.74500
O504        O  0.47199446  0.16484340  0.00073450    -0.55100
C505        C  0.49890565  0.18560572  0.00429348     0.76400
O506        O  0.42828442  0.25931052  0.86919555    -0.59700
O507        O  0.42672858  0.28760386  0.92899081    -0.52800
C508        C  0.42851719  0.28242926  0.88480519     0.73000
Zr509      Zr  0.42553258  0.21481881  0.90073206     2.54700
O510        O  0.46005061  0.23324119  0.83473450    -0.80300
O511        O  0.38408120  0.19428968  0.84614647    -0.93700
Zr512      Zr  0.48616816  0.24485064  0.00199878     2.64700
O513        O  0.52183400  0.26295081  0.93749006    -0.98600
O514        O  0.52457254  0.26536634  0.06203356    -0.80700
O515        O  0.45698015  0.20583029  0.94942755    -0.84000
O516        O  0.45635636  0.25463743  0.95124946    -2.18800
O517        O  0.34165657  0.21419087  0.99452904    -0.67400
O518        O  0.37863159  0.26210222  0.99781554    -0.52000
C519        C  0.35140472  0.24216537  0.99449416     0.71300
O520        O  0.42747727  0.17019172  0.13073196    -0.60300
O521        O  0.42806064  0.14128325  0.07097715    -0.52300
C522        C  0.42893316  0.14793561  0.11519671     0.73100
O523        O  0.42825977  0.25618967  0.13331905    -0.71700
O524        O  0.42596989  0.28578348  0.07645116    -0.50400
C525        C  0.42844443  0.27963282  0.11978791     0.74500
O526        O  0.34279582  0.12796905  0.99723359    -0.67100
O527        O  0.38046892  0.11815878  0.99848987    -0.54300
C528        C  0.35302577  0.11022490  0.99825474     0.72900
Zr529      Zr  0.36272741  0.18152158  0.99792832     2.77500
O530        O  0.32568315  0.16283223  0.06035517    -0.97800
O531        O  0.32654829  0.16204330  0.93427633    -0.78600
Zr532      Zr  0.42278857  0.21102251  0.09954504     2.70100
O533        O  0.37958039  0.18901454  0.15050699    -0.79900
O534        O  0.45422847  0.22459240  0.16947590    -0.99000
Zr535      Zr  0.42587497  0.16493244  0.99826360     2.21500
Zr536      Zr  0.42443366  0.26198585  0.00204591     2.11100
O537        O  0.39215038  0.22098630  0.05055013    -2.47700
O538        O  0.39291649  0.17141200  0.04826015    -0.79700
O539        O  0.39367406  0.22278142  0.94985246    -0.71900
O540        O  0.45564643  0.20429149  0.05086568    -2.32800
O541        O  0.39431702  0.17326690  0.94764868    -2.29000
O542        O  0.45483392  0.25251454  0.05293695    -0.73600
H543        H  0.46867115  0.27198070  0.93268905     0.78400
H544        H  0.46790945  0.19980354  0.07049601     0.79500
H545        H  0.37998302  0.22571370  0.06996468     0.81700
H546        H  0.38298973  0.15653515  0.92731623     0.79300
H547        H  0.51400431  0.25770924  0.09246870     0.42300
H548        H  0.47099345  0.24433681  0.16218452     0.41300
H549        H  0.36819728  0.16831014  0.13992960     0.41000
H550        H  0.32997710  0.18024491  0.07969591     0.38900
H551        H  0.33284656  0.15099541  0.91360994     0.42000
H552        H  0.39237057  0.20496726  0.81598328     0.36800
H553        H  0.47953306  0.24457068  0.85006230     0.42900
H554        H  0.51854594  0.27755382  0.92064893     0.39400
H555        H  0.30711348  0.15761005  0.04375917     0.44300
H556        H  0.37131685  0.20179163  0.85771473     0.43000
H557        H  0.54102208  0.27480138  0.95349872     0.43100
H558        H  0.44321853  0.22792214  0.19490577     0.43500
C559        C  0.25513224  0.28943800  0.97304135    -0.11500
C560        C  0.28087794  0.29780856  0.99914863     0.15100
C561        C  0.29393183  0.32463032  0.02425037     0.02000
C562        C  0.28133984  0.34250568  0.02231778    -0.15800
C563        C  0.25570187  0.33446838  0.99590863    -0.10600
C564        C  0.24263818  0.30756309  0.97065880     0.08700
C565        C  0.29587741  0.28036426  0.99481117     0.09700
S566        S  0.32735439  0.33787011  0.05800336    -0.25000
H567        H  0.29176285  0.36301149  0.04188143     0.20000
S568        S  0.21164930  0.29625776  0.93174222    -0.30700
H569        H  0.24547521  0.26926904  0.95263140     0.10300
C570        C  0.28940656  0.25643441  0.02495078     0.03500
C571        C  0.30667140  0.24289323  0.02248035    -0.13000
C572        C  0.33017745  0.25280828  0.99023639    -0.08600
C573        C  0.33507914  0.27542896  0.95789473     0.07000
C574        C  0.31824566  0.28913195  0.96098924    -0.13700
S575        S  0.26033446  0.24438689  0.06828981    -0.30600
H576        H  0.30282534  0.22557985  0.04723043     0.11200
S577        S  0.36241219  0.28779503  0.91155206    -0.27700
H578        H  0.32285654  0.30710065  0.93711596     0.08400
H579        H  0.22120887  0.32459450  0.91381926     0.26900
H580        H  0.26271588  0.22070573  0.08606051     0.21700
H581        H  0.36140549  0.26078167  0.90563220     0.27000
H582        H  0.32208290  0.31012124  0.07252349     0.15800
C583        C  0.43790451  0.61399098  0.95589339    -0.11500
C584        C  0.43428328  0.59677408  0.99602425     0.15100
C585        C  0.45594519  0.60757737  0.03189519     0.02000
C586        C  0.47967527  0.63625555  0.02841748    -0.15800
C587        C  0.48207168  0.65417672  0.98982499    -0.10600
C588        C  0.46161506  0.64250821  0.95230206     0.08700
C589        C  0.40541139  0.57018854  0.00241049     0.09700
S590        S  0.45336668  0.58665188  0.08422808    -0.25000
H591        H  0.49551396  0.64513462  0.05711932     0.20000
S592        S  0.46408948  0.66315694  0.89967079    -0.30700
H593        H  0.42133701  0.60564192  0.92823433     0.10300
C594        C  0.38408244  0.57110056  0.03135883     0.03500
C595        C  0.35533827  0.54744346  0.03083572    -0.13000
C596        C  0.34719458  0.52312684  0.00110771    -0.08600
C597        C  0.36875356  0.52216935  0.97236749     0.07000
C598        C  0.39771937  0.54558152  0.97379643    -0.13700
S599        S  0.39290795  0.60332702  0.06633158    -0.30600
H600        H  0.33887862  0.54817387  0.05293317     0.11200
S601        S  0.36033396  0.49323714  0.93017641    -0.27700
H602        H  0.41403971  0.54537451  0.95057393     0.08400
H603        H  0.49493355  0.67998599  0.89912503     0.26900
H604        H  0.36494601  0.59271972  0.08658693     0.21700
H605        H  0.33402112  0.49125527  0.91455087     0.27000
H606        H  0.43580116  0.55887425  0.06352955     0.15800
C607        C  0.25405996  0.96657615  0.00675971    -0.11500
C608        C  0.28203487  0.98390782  0.98678007     0.15100
C609        C  0.29657048  0.96999611  0.96720435     0.02000
C610        C  0.28362034  0.93943154  0.97005980    -0.15800
C611        C  0.25596686  0.92183675  0.99142862    -0.10600
C612        C  0.24092125  0.93585837  0.00941492     0.08700
C613        C  0.29724350  0.01636988  0.99196227     0.09700
S614        S  0.33209737  0.99013405  0.93907238    -0.25000
H615        H  0.29536082  0.92929816  0.95514758     0.20000
S616        S  0.20595941  0.91632000  0.03906536    -0.30700
H617        H  0.24292289  0.97717524  0.02225848     0.10300
C618        C  0.29340617  0.03446098  0.95926661     0.03500
C619        C  0.31080114  0.06524212  0.96330063    -0.13000
C620        C  0.33195920  0.07818521  0.99942752    -0.08600
C621        C  0.33447864  0.05987666  0.03359589     0.07000
C622        C  0.31735847  0.02933356  0.02923949    -0.13700
S623        S  0.26752422  0.01826612  0.91109954    -0.30600
H624        H  0.30882184  0.07923895  0.93717970     0.11200
S625        S  0.35919731  0.07411945  0.08360578    -0.27700
H626        H  0.32005358  0.01546762  0.05478457     0.08400
H627        H  0.21426345  0.89964319  0.06726600     0.26900
H628        H  0.27448110  0.04478254  0.88841045     0.21700
H629        H  0.35821267  0.10020487  0.08821859     0.27000
H630        H  0.32858019  0.01320824  0.92179807     0.15800
C631        C  0.14995580  0.54597130  0.03490948    -0.11500
C632        C  0.16636433  0.57048382  0.00574251     0.15100
C633        C  0.18746633  0.57080069  0.97433705     0.02000
C634        C  0.19136271  0.54652442  0.97240455    -0.15800
C635        C  0.17578079  0.52240582  0.00274423    -0.10600
C636        C  0.15476652  0.52213833  0.03432999     0.08700
C637        C  0.16309678  0.59650969  0.01165967     0.09700
S638        S  0.21128535  0.60193132  0.93756842    -0.25000
H639        H  0.20768268  0.54699809  0.94833177     0.20000
S640        S  0.13527269  0.49339407  0.07733053    -0.30700
H641        H  0.13423214  0.54600671  0.05973667     0.10300
C642        C  0.15037306  0.60537188  0.97608708     0.03500
C643        C  0.15315544  0.63324191  0.97898342    -0.13000
C644        C  0.16881785  0.65235348  0.01639412    -0.08600
C645        C  0.17912475  0.64228312  0.05416533     0.07000
C646        C  0.17619186  0.61447530  0.05132966    -0.13700
S647        S  0.13215682  0.58187290  0.92583005    -0.30600
H648        H  0.14498502  0.64096231  0.95041951     0.11200
S649        S  0.19717741  0.66421277  0.10595890    -0.27700
H650        H  0.18556186  0.60740297  0.07903120     0.08400
H651        H  0.15982121  0.49097557  0.08995918     0.26900
H652        H  0.12827057  0.60241059  0.89967749     0.21700
H653        H  0.18494179  0.68251044  0.10302681     0.27000
H654        H  0.21260533  0.62381955  0.96769494     0.15800
C655        C  0.38324318  0.81145636  0.03140232    -0.11500
C656        C  0.40230263  0.83037419  0.99643064     0.15100
C657        C  0.39289386  0.84569974  0.96692741     0.02000
C658        C  0.36413469  0.84055930  0.97124395    -0.15800
C659        C  0.34454689  0.82058417  0.00488887    -0.10600
C660        C  0.35481790  0.80684942  0.03655432     0.08700
C661        C  0.43083297  0.83166282  0.98957758     0.09700
S662        S  0.41643887  0.87149739  0.92261476    -0.25000
H663        H  0.35674767  0.85157203  0.94723925     0.20000
S664        S  0.33314685  0.78387710  0.08511887    -0.30700
H665        H  0.39052588  0.79996268  0.05464974     0.10300
C666        C  0.45342803  0.84467730  0.02365883     0.03500
C667        C  0.47805697  0.84118335  0.01963083    -0.13000
C668        C  0.48056460  0.82507318  0.98208643    -0.08600
C669        C  0.45902548  0.81408607  0.94599496     0.07000
C670        C  0.43423823  0.81717039  0.95039295    -0.13700
S671        S  0.45054570  0.86512620  0.07280620    -0.30600
H672        H  0.49456604  0.84952834  0.04720889     0.11200
S673        S  0.46193817  0.79576209  0.89387664    -0.27700
H674        H  0.41709959  0.80753135  0.92375399     0.08400
H675        H  0.31790206  0.79903529  0.09301884     0.26900
H676        H  0.47639493  0.87054520  0.09623246     0.21700
H677        H  0.49284315  0.81130087  0.89241226     0.27000
H678        H  0.44286395  0.88067455  0.94728932     0.15800
C679        C  0.74060244  0.03281749  0.03417168    -0.11500
C680        C  0.71951535  0.01552764  0.00002661     0.15100
C681        C  0.71258987  0.02943249  0.96350808     0.02000
C682        C  0.72694312  0.06011463  0.96177277    -0.15800
C683        C  0.74745510  0.07745869  0.99665333    -0.10600
C684        C  0.75433687  0.06354873  0.03325801     0.08700
C685        C  0.70381066  0.98311313  0.00487052     0.09700
S686        S  0.68457757  0.00924174  0.91962584    -0.25000
H687        H  0.72118714  0.07057247  0.93397315     0.20000
S688        S  0.77884147  0.08352826  0.08148737    -0.30700
H689        H  0.74565306  0.02222769  0.06266687     0.10300
C690        C  0.70794642  0.96513342  0.97232612     0.03500
C691        C  0.69047506  0.93447252  0.97593352    -0.13000
C692        C  0.66889082  0.92152711  0.01127721    -0.08600
C693        C  0.66592988  0.93954524  0.04540733     0.07000
C694        C  0.68327463  0.97008730  0.04168923    -0.13700
S695        S  0.73513636  0.98122272  0.92584381    -0.30600
H696        H  0.69276015  0.92053893  0.95003806     0.11200
S697        S  0.64050832  0.92486494  0.09449242    -0.27700
H698        H  0.68033815  0.98385314  0.06713363     0.08400
H699        H  0.77049485  0.10495914  0.08545192     0.26900
H700        H  0.72782912  0.95479857  0.90249012     0.21700
H701        H  0.64108945  0.89853385  0.09834111     0.27000
H702        H  0.66529051  0.98692605  0.95070343     0.15800
C703        C  0.97024335  0.28711405  0.04080647    -0.11500
C704        C  0.98430040  0.27952356  0.00598772     0.15100
C705        C  0.96705442  0.25765274  0.97222757     0.02000
C706        C  0.93637188  0.24495094  0.97278087    -0.15800
C707        C  0.92245313  0.25364238  0.00622480    -0.10600
C708        C  0.93965651  0.27436027  0.04147747     0.08700
C709        C  0.01685425  0.29709787  0.00319687     0.09700
S710        S  0.98280716  0.24605885  0.92607445    -0.25000
H711        H  0.92336846  0.22901704  0.94575275     0.20000
S712        S  0.92386528  0.28552107  0.08816205    -0.30700
H713        H  0.98330085  0.30372801  0.06694149     0.10300
C714        C  0.03078526  0.32001798  0.96987978     0.03500
C715        C  0.06148452  0.33769981  0.97025038    -0.13000
C716        C  0.07876671  0.33326133  0.00356585    -0.08600
C717        C  0.06471907  0.31033004  0.03715278     0.07000
C718        C  0.03398878  0.29240557  0.03639341    -0.13700
S719        S  0.00934127  0.32747442  0.92797615    -0.30600
H720        H  0.07215708  0.35537839  0.94472269     0.11200
S721        S  0.08446827  0.30399990  0.08356127    -0.27700
H722        H  0.02326853  0.27516795  0.06266036     0.08400
H723        H  0.89826799  0.25792859  0.09253990     0.26900
H724        H  0.03289117  0.35297132  0.90822578     0.21700
H725        H  0.10517501  0.33380223  0.09114324     0.27000
H726        H  0.00990603  0.25506637  0.94826957     0.15800
C727        C  0.60745146  0.15821636  0.03619555    -0.11500
C728        C  0.59746402  0.16695887  0.99667872     0.15100
C729        C  0.61598399  0.17876701  0.95657969     0.02000
C730        C  0.64379094  0.18147227  0.95706091    -0.15800
C731        C  0.65421618  0.17389255  0.99734699    -0.10600
C732        C  0.63588223  0.16246959  0.03754005     0.08700
C733        C  0.57009034  0.16815514  0.00172479     0.09700
S734        S  0.60664150  0.19286790  0.90511595    -0.25000
H735        H  0.65810894  0.19113401  0.92662325     0.20000
S736        S  0.64847297  0.15640695  0.09347511    -0.30700
H737        H  0.59376483  0.15010239  0.06764346     0.10300
C738        C  0.54506692  0.15137636  0.97329849     0.03500
C739        C  0.52127851  0.15637209  0.97623298    -0.13000
C740        C  0.52210656  0.17769222  0.00725511    -0.08600
C741        C  0.54627358  0.19275001  0.03828113     0.07000
C742        C  0.57000499  0.18793571  0.03491667    -0.13700
S743        S  0.54366956  0.12405680  0.93293573    -0.30600
H744        H  0.50253891  0.14454408  0.95299543     0.11200
S745        S  0.54678231  0.21746575  0.08338377    -0.27700
H746        H  0.58897910  0.20010037  0.05758154     0.08400
H747        H  0.67757727  0.17960580  0.08948579     0.26900
H748        H  0.51511098  0.11422195  0.91585600     0.21700
H749        H  0.57612411  0.22883754  0.09769259     0.27000
H750        H  0.59015487  0.20307807  0.92926148     0.15800
C751        C  0.97029084  0.68691093  0.96281305    -0.11500
C752        C  0.98325746  0.70777753  0.99908964     0.15100
C753        C  0.96514243  0.71060948  0.03322071     0.02000
C754        C  0.93458439  0.69184928  0.03116100    -0.15800
C755        C  0.92173685  0.67009142  0.99594219    -0.10600
C756        C  0.93988377  0.66808174  0.96086730     0.08700
C757        C  0.01571074  0.72343443  0.00304972     0.09700
S758        S  0.97984557  0.73652912  0.08154761    -0.25000
H759        H  0.92085673  0.69349153  0.05827620     0.20000
S760        S  0.92573587  0.64153845  0.91326703    -0.30700
H761        H  0.98412171  0.68459511  0.93667550     0.10300
C762        C  0.02953650  0.71314698  0.03404692     0.03500
C763        C  0.06012348  0.72566841  0.03234218    -0.13000
C764        C  0.07740362  0.74836870  0.00026360    -0.08600
C765        C  0.06348571  0.75912630  0.96998838     0.07000
C766        C  0.03285130  0.74660890  0.97181286    -0.13700
S767        S  0.00805087  0.68310191  0.07431847    -0.30600
H768        H  0.07067506  0.71743167  0.05572269     0.11200
S769        S  0.08316542  0.78716906  0.92608719    -0.27700
H770        H  0.02215825  0.75422667  0.94748787     0.08400
H771        H  0.89893045  0.64106492  0.90854246     0.26900
H772        H  0.03169343  0.68181537  0.09497185     0.21700
H773        H  0.10162118  0.77632281  0.91232386     0.27000
H774        H  0.00538962  0.75724016  0.05768409     0.15800
C775        C  0.74623664  0.71376380  0.97381393    -0.11500
C776        C  0.72371138  0.70790046  0.00632428     0.15100
C777        C  0.71370550  0.68362551  0.03717815     0.02000
C778        C  0.72581925  0.66541064  0.03414048    -0.15800
C779        C  0.74781252  0.67066419  0.00086559    -0.10600
C780        C  0.75813809  0.69522782  0.97033919     0.08700
C781        C  0.70722797  0.72365615  0.00138890     0.09700
S782        S  0.68410637  0.67346307  0.07894159    -0.25000
H783        H  0.71767147  0.64662941  0.05769301     0.20000
S784        S  0.78417112  0.70243182  0.92336452    -0.30700
H785        H  0.75328721  0.73183069  0.94903612     0.10300
C786        C  0.71420385  0.74916527  0.02755446     0.03500
C787        C  0.69551072  0.76102342  0.02496252    -0.13000
C788        C  0.67016556  0.74786314  0.99639236    -0.08600
C789        C  0.66461554  0.72347481  0.96780850     0.07000
C790        C  0.68283541  0.71143855  0.97125972    -0.13700
S791        S  0.74593455  0.76552064  0.06594453    -0.30600
H792        H  0.69997941  0.77982945  0.04657558     0.11200
S793        S  0.63515179  0.70706507  0.92517301    -0.27700
H794        H  0.67786144  0.69217256  0.95040351     0.08400
H795        H  0.77299094  0.67273832  0.91143355     0.26900
H796        H  0.74168176  0.78805599  0.08383215     0.21700
H797        H  0.63708175  0.73375811  0.91206266     0.27000
H798        H  0.68942266  0.70197699  0.08754748     0.15800
C799        C  0.81442169  0.43271785  0.96377132    -0.11500
C800        C  0.83101511  0.43007495  0.00035531     0.15100
C801        C  0.84502674  0.45311714  0.03383821     0.02000
C802        C  0.84093560  0.47745010  0.03114538    -0.15800
C803        C  0.82308101  0.47928025  0.99588659    -0.10600
C804        C  0.81043808  0.45700270  0.96101651     0.08700
C805        C  0.83069212  0.40178583  0.00439941     0.09700
S806        S  0.86712138  0.45225843  0.08212909    -0.25000
H807        H  0.85068096  0.49443355  0.05803564     0.20000
S808        S  0.78868670  0.45811240  0.91239297    -0.30700
H809        H  0.80377846  0.41525970  0.93782263     0.10300
C810        C  0.81293264  0.38067777  0.03850231     0.03500
C811        C  0.80985753  0.35267759  0.03724587    -0.13000
C812        C  0.82388842  0.34499363  0.00236934    -0.08600
C813        C  0.84220550  0.36634416  0.96872424     0.07000
C814        C  0.84553039  0.39452378  0.97031657    -0.13700
S815        S  0.79237271  0.38854201  0.08159875    -0.30600
H816        H  0.79563758  0.33625779  0.06276110     0.11200
S817        S  0.86011067  0.35846731  0.92101667    -0.27700
H818        H  0.85879492  0.41054900  0.94356561     0.08400
H819        H  0.80356009  0.48890889  0.90852381     0.26900
H820        H  0.78278001  0.36299693  0.10905907     0.21700
H821        H  0.83687572  0.32979425  0.91256876     0.27000
H822        H  0.87361097  0.43179007  0.06193384     0.15800
C823        C  0.54393540  0.39803430  0.03439972    -0.11500
C824        C  0.56872801  0.40531737  0.00633388     0.15100
C825        C  0.56871300  0.38378122  0.97648430     0.02000
C826        C  0.54454807  0.35537883  0.97659282    -0.15800
C827        C  0.52016724  0.34752676  0.00604795    -0.10600
C828        C  0.51978609  0.36930949  0.03499587     0.08700
C829        C  0.59609786  0.43350363  0.01460375     0.09700
S830        S  0.59972709  0.39029302  0.94022979    -0.25000
H831        H  0.54508789  0.33896172  0.95404147     0.20000
S832        S  0.49076040  0.36133573  0.07671683    -0.30700
H833        H  0.54418366  0.41435283  0.05815960     0.10300
C834        C  0.60417754  0.45853756  0.98642334     0.03500
C835        C  0.63282976  0.48267769  0.98991109    -0.13000
C836        C  0.65332664  0.48217722  0.02133084    -0.08600
C837        C  0.64391362  0.45831499  0.05316260     0.07000
C838        C  0.61565077  0.43409523  0.04885850    -0.13700
S839        S  0.57891605  0.45865466  0.94326008    -0.30600
H840        H  0.63983398  0.50108686  0.96592218     0.11200
S841        S  0.66687088  0.45733323  0.09983149    -0.27700
H842        H  0.60908897  0.41514040  0.07149451     0.08400
H843        H  0.48725824  0.33415928  0.09091119     0.26900
H844        H  0.59645930  0.48818711  0.92940906     0.21700
H845        H  0.68296399  0.48793206  0.10668554     0.27000
H846        H  0.61055499  0.42027370  0.93212843     0.15800
C847        C  0.42630415  0.33966720  0.19239542    -0.11500
C848        C  0.44646178  0.34391666  0.22839464     0.15100
C849        C  0.46005386  0.32669988  0.22895146     0.02000
C850        C  0.45351183  0.30591324  0.19323884    -0.15800
C851        C  0.43328725  0.30144245  0.15704717    -0.10600
C852        C  0.41935621  0.31847379  0.15697824     0.08700
C853        C  0.45290183  0.36637212  0.26505200     0.09700
S854        S  0.48632170  0.33053256  0.27367563    -0.25000
H855        H  0.46458803  0.29326005  0.19351206     0.20000
S856        S  0.39181305  0.31355570  0.11410035    -0.30700
H857        H  0.41569058  0.35275721  0.19223592     0.10300
C858        C  0.47899424  0.39379908  0.26386766     0.03500
C859        C  0.48504501  0.41372203  0.30099447    -0.13000
C860        C  0.46555877  0.40674243  0.33932495    -0.08600
C861        C  0.43882860  0.37965715  0.33938913     0.07000
C862        C  0.43293086  0.35967358  0.30245851    -0.13700
S863        S  0.50465743  0.40332706  0.21529035    -0.30600
H864        H  0.50534982  0.43463116  0.30072140     0.11200
S865        S  0.41101198  0.36971138  0.38439602    -0.27700
H866        H  0.41267193  0.33869322  0.30287996     0.08400
H867        H  0.37886814  0.28283739  0.11145969     0.26900
H868        H  0.52570348  0.43124263  0.23223717     0.21700
H869        H  0.41620305  0.39838955  0.39133662     0.27000
H870        H  0.47416107  0.33857662  0.31115718     0.15800
C871        C  0.44844223  0.35441136  0.82155806    -0.11500
C872        C  0.44005683  0.34448027  0.77488199     0.15100
C873        C  0.42574998  0.31412411  0.76537693     0.02000
C874        C  0.42165025  0.29453679  0.80210017    -0.15800
C875        C  0.43135131  0.30439650  0.84870115    -0.10600
C876        C  0.44448952  0.33488699  0.85840529     0.08700
C877        C  0.44953691  0.36643344  0.73625270     0.09700
S878        S  0.41285145  0.29909587  0.70691458    -0.25000
H879        H  0.41098703  0.27131215  0.79392583     0.20000
S880        S  0.45903565  0.35083473  0.91566292    -0.30700
H881        H  0.45961266  0.37777929  0.82883599     0.10300
C882        C  0.43626564  0.38361573  0.72908481     0.03500
C883        C  0.44671468  0.40470397  0.69279874    -0.13000
C884        C  0.46996760  0.40872141  0.66333169    -0.08600
C885        C  0.48333052  0.39160070  0.67072562     0.07000
C886        C  0.47288427  0.37055650  0.70693153    -0.13700
S887        S  0.40530641  0.37786968  0.76476316    -0.30600
H888        H  0.43636213  0.41772336  0.68658712     0.11200
S889        S  0.51421457  0.39616400  0.63619836    -0.27700
H890        H  0.48326906  0.35752223  0.71277523     0.08400
H891        H  0.47566307  0.33678612  0.91977547     0.26900
H892        H  0.40154328  0.40001892  0.74378669     0.21700
H893        H  0.52652105  0.42649972  0.62852616     0.27000
H894        H  0.40834624  0.32177070  0.69069145     0.15800
C895        C  0.68196950  0.56657806  0.23430929    -0.11500
C896        C  0.65326231  0.54392571  0.22522934     0.15100
C897        C  0.64577159  0.53126649  0.17946898     0.02000
C898        C  0.66724341  0.54145234  0.14396883    -0.15800
C899        C  0.69623867  0.56345594  0.15363083    -0.10600
C900        C  0.70348106  0.57647445  0.19911959     0.08700
C901        C  0.63127465  0.53587466  0.26327264     0.09700
S902        S  0.60968448  0.50135252  0.16478698    -0.25000
H903        H  0.66164006  0.53109139  0.10928755     0.20000
S904        S  0.73951305  0.60626761  0.21417244    -0.30700
H905        H  0.68753433  0.57690424  0.26900700     0.10300
C906        C  0.63350691  0.52370312  0.30655408     0.03500
C907        C  0.61341414  0.51878461  0.34307958    -0.13000
C908        C  0.59098466  0.52558999  0.33701734    -0.08600
C909        C  0.58897475  0.53774012  0.29321205    -0.01100
C910        C  0.60894618  0.54253821  0.25697454    -0.13700
S911        S  0.66139980  0.51369109  0.31468606    -0.30600
H912        H  0.61491130  0.50920621  0.37624079     0.11200
S913        S  0.56289755  0.54958199  0.28208968    -0.27700
H914        H  0.60767786  0.55246930  0.22398226     0.08400
H915        H  0.74587960  0.61900396  0.16861620     0.26900
H916        H  0.65248782  0.50139602  0.36024150     0.21700
H917        H  0.56825771  0.56398263  0.32612175     0.27000
H918        H  0.60286163  0.48894314  0.21053405     0.15800
C919        C  0.63761686  0.55903186  0.70118581    -0.11500
C920        C  0.62986057  0.53943177  0.73934950     0.15100
C921        C  0.60235267  0.51326186  0.73930248     0.02000
C922        C  0.58348225  0.50699140  0.70058738    -0.15800
C923        C  0.59129679  0.52649515  0.66213589    -0.10600
C924        C  0.61852199  0.55305562  0.66292894     0.08700
C925        C  0.65165077  0.54630772  0.77732905     0.09700
S926        S  0.59024595  0.48689438  0.78711894    -0.25000
H927        H  0.56248700  0.48673194  0.70047776     0.20000
S928        S  0.62966793  0.58070649  0.61738303    -0.30700
H929        H  0.65868351  0.57920339  0.70135859     0.10300
C930        C  0.66916932  0.53314514  0.77796932     0.03500
C931        C  0.69051033  0.54112783  0.81328332    -0.13000
C932        C  0.69472400  0.56195132  0.84833513    -0.08600
C933        C  0.67684718  0.57495365  0.84776181     0.07000
C934        C  0.65556556  0.56701262  0.81217091    -0.13700
S935        S  0.66465596  0.50649348  0.73335099    -0.30600
H936        H  0.70384795  0.53081506  0.81387473     0.11200
S937        S  0.68053772  0.60229705  0.89011923    -0.27700
H938        H  0.64210682  0.57721864  0.81130037     0.08400
H939        H  0.60156301  0.57710806  0.61097006     0.26900
H940        H  0.68540391  0.49978052  0.75186409     0.21700
H941        H  0.71130740  0.61626404  0.89346665     0.27000
H942        H  0.60593642  0.50705234  0.82344994     0.15800
C943        C  0.57035444  0.65701095  0.18514068    -0.11500
C944        C  0.55105848  0.65298648  0.22253391     0.15100
C945        C  0.53871919  0.67127044  0.22586699     0.02000
C946        C  0.54535265  0.69266545  0.19125582    -0.15800
C947        C  0.56430425  0.69661298  0.15321188    -0.10600
C948        C  0.57757291  0.67898051  0.15097244     0.08700
C949        C  0.54555160  0.63094957  0.25946263     0.09700
S950        S  0.51503093  0.66916528  0.27401865    -0.25000
H951        H  0.53518041  0.70611284  0.19380243     0.20000
S952        S  0.60524128  0.68463709  0.10772420    -0.30700
H953        H  0.58051246  0.64352410  0.18343797     0.10300
C954        C  0.52250744  0.60172380  0.25519307     0.03500
C955        C  0.51588725  0.58248185  0.29365524    -0.13000
C956        C  0.53227986  0.59173302  0.33600352    -0.08600
C957        C  0.55659152  0.62067090  0.33869325     0.07000
C958        C  0.56253103  0.64005024  0.30086009    -0.13700
S959        S  0.50089723  0.58935460  0.20146825    -0.30600
H960        H  0.49752074  0.56027455  0.29104437     0.11200
S961        S  0.58174415  0.63395173  0.38806853    -0.27700
H962        H  0.58060222  0.66244691  0.30359785     0.08400
H963        H  0.61855444  0.71544571  0.10720382     0.26900
H964        H  0.48293725  0.55989988  0.21535593     0.21700
H965        H  0.58171555  0.60745341  0.39467234     0.27000
H966        H  0.50351812  0.63941325  0.28523908     0.15800
C967        C  0.53539597  0.63666540  0.69806001    -0.11500
C968        C  0.55357803  0.63615090  0.73402094     0.15100
C969        C  0.56113950  0.61394644  0.73362006     0.02000
C970        C  0.55018447  0.59275159  0.69761903    -0.15800
C971        C  0.53227650  0.59347620  0.66123482    -0.10600
C972        C  0.52463070  0.61563268  0.66188807     0.08700
C973        C  0.56229363  0.65778999  0.77308384     0.09700
S974        S  0.58509803  0.61174522  0.77720189    -0.25000
H975        H  0.55644727  0.57603702  0.69720590     0.20000
S976        S  0.50015497  0.61753245  0.61915732    -0.30700
H977        H  0.52899616  0.65326942  0.69881819     0.10300
C978        C  0.58043826  0.68812665  0.76495737     0.03500
C979        C  0.58540581  0.70800385  0.80186316    -0.13000
C980        C  0.57272220  0.69824906  0.84701493    -0.08600
C981        C  0.55556072  0.66757315  0.85538337     0.07000
C982        C  0.55038607  0.64786282  0.81834442    -0.13700
S983        S  0.59714734  0.70152042  0.70747540    -0.30600
H984        H  0.59890825  0.73133539  0.79529673     0.11200
S985        S  0.53757258  0.65199036  0.91099457    -0.27700
H986        H  0.53625458  0.62452715  0.82448892     0.08400
H987        H  0.48199873  0.58694675  0.61453451     0.26900
H988        H  0.61201169  0.73158021  0.71894042     0.21700
H989        H  0.56428987  0.66176545  0.93516259     0.27000
H990        H  0.60098658  0.64185182  0.78811154     0.15800
C991        C  0.36331538  0.46599265  0.30403743    -0.11500
C992        C  0.36568942  0.45107973  0.26458733     0.15100
C993        C  0.38922759  0.44552391  0.26204449     0.02000
C994        C  0.40981399  0.45502554  0.29891900    -0.15800
C995        C  0.40747204  0.46997930  0.33858755    -0.10600
C996        C  0.38406307  0.47584769  0.34055914     0.08700
C997        C  0.34481283  0.44427036  0.22496070     0.09700
S998        S  0.39410897  0.42635503  0.21295338    -0.25000
H999        H  0.42756744  0.45026937  0.29693259     0.20000
S1000       S  0.38066609  0.49779288  0.38647653    -0.30700
H1001       H  0.34576494  0.47106788  0.30537610     0.10300
C1002       C  0.31458612  0.42416788  0.23042049     0.03500
C1003       C  0.29523797  0.42069914  0.19353666    -0.13000
C1004       C  0.30547984  0.43673386  0.15108052    -0.08600
C1005       C  0.33591625  0.45639914  0.14543675     0.07000
C1006       C  0.35516451  0.46007591  0.18246310    -0.13700
S1007       S  0.30068189  0.40277639  0.28416851    -0.30600
H1008       H  0.27194535  0.40549829  0.19777684     0.11200
S1009       S  0.35111594  0.47947705  0.09403544    -0.27700
H1010       H  0.37834270  0.47596118  0.17864956     0.08400
H1011       H  0.41095465  0.51824512  0.38815247     0.26900
H1012       H  0.27073669  0.38886211  0.27206628     0.21700
H1013       H  0.34332125  0.45567109  0.06318034     0.27000
H1014       H  0.36413249  0.40898702  0.20180224     0.15800
C1015       C  0.36160031  0.43717525  0.69971852    -0.11500
C1016       C  0.36773986  0.45708732  0.73693487     0.15100
C1017       C  0.39475456  0.48383137  0.73758978     0.02000
C1018       C  0.41473085  0.49028293  0.70042535    -0.15800
C1019       C  0.40838537  0.47061317  0.66263389    -0.10600
C1020       C  0.38168801  0.44349267  0.66283845     0.08700
C1021       C  0.34483394  0.44983500  0.77310273     0.09700
S1022       S  0.40471017  0.51104034  0.78372277    -0.25000
H1023       H  0.43521462  0.51106502  0.70057104     0.20000
S1024       S  0.37227888  0.41569436  0.61803330    -0.30700
H1025       H  0.34095213  0.41655595  0.69943351     0.10300
C1026       C  0.32577147  0.46117942  0.76998552     0.03500
C1027       C  0.30428652  0.45383264  0.80494167    -0.13000
C1028       C  0.30136078  0.43528458  0.84311230    -0.08600
C1029       C  0.32003400  0.42319891  0.84518203     0.07000
C1030       C  0.34165489  0.43076028  0.81029594    -0.13700
S1031       S  0.32894965  0.48515055  0.72156781    -0.30600
H1032       H  0.29014234  0.46321590  0.80312788     0.11200
S1033       S  0.31692125  0.39743301  0.89021338    -0.27700
H1034       H  0.35605104  0.42162682  0.81194439     0.08400
H1035       H  0.40095784  0.42068405  0.61239207     0.26900
H1036       H  0.30531603  0.48894663  0.73487854     0.21700
H1037       H  0.28611977  0.38318025  0.89351738     0.27000
H1038       H  0.38681048  0.49192940  0.81966184     0.15800
C1039       C  0.91210653  0.56765415  0.18525685    -0.11500
C1040       C  0.89627134  0.55069941  0.22452833     0.15100
C1041       C  0.86643360  0.54222634  0.22967349     0.02000
C1042       C  0.85302536  0.55075978  0.19551636    -0.15800
C1043       C  0.86857912  0.56752031  0.15569276    -0.10600
C1044       C  0.89872203  0.57641970  0.15103523     0.08700
C1045       C  0.91179991  0.54424814  0.26195575     0.09700
S1046       S  0.84428283  0.52066930  0.27921042    -0.25000
H1047       H  0.82990526  0.54352932  0.19961947     0.20000
S1048       S  0.92169827  0.60008723  0.10400240    -0.30700
H1049       H  0.93525088  0.57477690  0.18202596     0.10300
C1050       C  0.91848428  0.52167071  0.25702046     0.03500
C1051       C  0.93113035  0.51498759  0.29534148    -0.13000
C1052       C  0.93719318  0.53044329  0.33856023    -0.08600
C1053       C  0.93099056  0.55359550  0.34271476     0.07000
C1054       C  0.91834523  0.56011983  0.30437650    -0.13700
S1055       S  0.91003129  0.50083130  0.20254470    -0.30600
H1056       H  0.93601237  0.49741009  0.29183121     0.11200
S1057       S  0.94038760  0.57624713  0.39523146    -0.27700
H1058       H  0.91328977  0.57760908  0.30732451     0.08400
H1059       H  0.90817123  0.61729533  0.10215385     0.26900
H1060       H  0.91887683  0.48103770  0.21790035     0.21700
H1061       H  0.92566146  0.59140336  0.38304473     0.27000
H1062       H  0.85896475  0.50493940  0.28692389     0.15800
C1063       C  0.90418257  0.51669963  0.73147493    -0.11500
C1064       C  0.91297574  0.54642994  0.73754715     0.15100
C1065       C  0.93447009  0.56757594  0.70695035     0.02000
C1066       C  0.94553432  0.55835246  0.66966877    -0.15800
C1067       C  0.93637817  0.52856058  0.66316230    -0.10600
C1068       C  0.91560268  0.50752330  0.69471977     0.08700
C1069       C  0.89820780  0.55419181  0.77483075     0.09700
S1070       S  0.94884104  0.60651353  0.71375152    -0.25000
H1071       H  0.96192549  0.57461523  0.64609894     0.20000
S1072       S  0.90214725  0.46868507  0.68966321    -0.30700
H1073       H  0.88776367  0.50042645  0.75499697     0.10300
C1074       C  0.87726765  0.56232699  0.76327720     0.03500
C1075       C  0.86236356  0.56756418  0.79980416    -0.13000
C1076       C  0.86699506  0.56376268  0.84800513    -0.08600
C1077       C  0.88787577  0.55510981  0.85910063     0.07000
C1078       C  0.90347453  0.55096753  0.82257338    -0.13700
S1079       S  0.86820473  0.56432014  0.70197377    -0.30600
H1080       H  0.84652566  0.57409245  0.79050508     0.11200
S1081       S  0.89411500  0.54650143  0.91829988    -0.27700
H1082       H  0.91910210  0.54401678  0.83132366     0.08400
H1083       H  0.90720631  0.46834451  0.64075125     0.26900
H1084       H  0.84694362  0.57242357  0.71086297     0.21700
H1085       H  0.86413836  0.52635475  0.92561430     0.27000
H1086       H  0.94357982  0.60599485  0.76279809     0.15800
C1087       C  0.93667879  0.38977711  0.25820182    -0.11500
C1088       C  0.90645769  0.36996764  0.25987927     0.15100
C1089       C  0.89010774  0.37026158  0.29948614     0.02000
C1090       C  0.90451959  0.38968040  0.33716416    -0.15800
C1091       C  0.93488775  0.40955527  0.33565591    -0.10600
C1092       C  0.95101293  0.40944134  0.29537013     0.08700
C1093       C  0.89322624  0.34775461  0.22166718     0.09700
S1094       S  0.85081490  0.34681095  0.30369691    -0.25000
H1095       H  0.89179033  0.38976682  0.36736987     0.20000
S1096       S  0.99016180  0.43252388  0.29008125    -0.30700
H1097       H  0.94935549  0.38933295  0.22817273     0.10300
C1098       C  0.88891293  0.35521106  0.17547524     0.03500
C1099       C  0.87598119  0.33316893  0.14072471    -0.13000
C1100       C  0.86746908  0.30382302  0.15116240    -0.08600
C1101       C  0.87336693  0.29689174  0.19694286     0.07000
C1102       C  0.88571729  0.31876853  0.23171087    -0.13700
S1103       S  0.89874515  0.39252388  0.16142400    -0.30600
H1104       H  0.87153941  0.33861812  0.10577104     0.11200
S1105       S  0.86666375  0.26090872  0.21298366    -0.27700
H1106       H  0.88985348  0.31324764  0.26686912     0.08400
H1107       H  0.99538688  0.42867964  0.33775134     0.26900
H1108       H  0.88867358  0.38725559  0.11417438     0.21700
H1109       H  0.87260608  0.25399987  0.16762354     0.27000
H1110       H  0.84528637  0.34354208  0.25457155     0.15800
C1111       C  0.92740584  0.35987202  0.69723718    -0.11500
C1112       C  0.91498186  0.36630389  0.73614288     0.15100
C1113       C  0.91654732  0.39378323  0.73880027     0.02000
C1114       C  0.92955829  0.41378999  0.70164730    -0.15800
C1115       C  0.94104125  0.40706196  0.66169454    -0.10600
C1116       C  0.94073768  0.38006735  0.66024974     0.08700
C1117       C  0.89882502  0.34323217  0.77177457     0.09700
S1118       S  0.90131066  0.40419505  0.78747138    -0.25000
H1119       H  0.93035001  0.43467918  0.70364334     0.20000
S1120       S  0.95772788  0.37040757  0.61341033    -0.30700
H1121       H  0.92651116  0.33887703  0.69557881     0.10300
C1122       C  0.86807339  0.32576879  0.76969007     0.03500
C1123       C  0.85330964  0.30447241  0.80467961    -0.13000
C1124       C  0.86864836  0.30041675  0.84207907    -0.08600
C1125       C  0.89963197  0.31777027  0.84353221     0.07000
C1126       C  0.91435933  0.33903262  0.80839527    -0.13700
S1127       S  0.84767208  0.33086399  0.72266462    -0.30600
H1128       H  0.82958263  0.29132438  0.80348624     0.11200
S1129       S  0.92166172  0.31331854  0.88811274    -0.27700
H1130       H  0.93808874  0.35243756  0.80954405     0.08400
H1131       H  0.98029741  0.39924492  0.60413753     0.26900
H1132       H  0.81947514  0.31096515  0.74004305     0.21700
H1133       H  0.90393936  0.28258940  0.89108729     0.27000
H1134       H  0.90362915  0.38634904  0.82223974     0.15800
C1135       C  0.08777111  0.43105217  0.18723829    -0.11500
C1136       C  0.10322441  0.45004992  0.22483181     0.15100
C1137       C  0.13366611  0.46112433  0.22926634     0.02000
C1138       C  0.14808417  0.45333580  0.19574676    -0.15800
C1139       C  0.13289650  0.43469925  0.15747556    -0.10600
C1140       C  0.10217051  0.42295682  0.15385460     0.08700
C1141       C  0.08686892  0.45609991  0.26131588     0.09700
S1142       S  0.15532909  0.48488875  0.27728352    -0.25000
H1143       H  0.17162384  0.46263641  0.19895195     0.20000
S1144       S  0.07989636  0.39652258  0.10918816    -0.30700
H1145       H  0.06422427  0.42190066  0.18465245     0.10300
C1146       C  0.08080515  0.47911266  0.25629572     0.03500
C1147       C  0.06797144  0.48588180  0.29432968    -0.13000
C1148       C  0.06065788  0.46971301  0.33697152    -0.08600
C1149       C  0.06510016  0.44539100  0.34020370     0.07000
C1150       C  0.07869265  0.43931237  0.30288415    -0.13700
S1151       S  0.09047071  0.50043713  0.20220567    -0.30600
H1152       H  0.06404454  0.50411088  0.29115021     0.11200
S1153       S  0.05262987  0.42022331  0.38952432    -0.27700
H1154       H  0.08280397  0.42117804  0.30608516     0.08400
H1155       H  0.09620011  0.38201054  0.10838212     0.26900
H1156       H  0.08014669  0.51930092  0.21613543     0.21700
H1157       H  0.02598830  0.42002979  0.39495324     0.27000
H1158       H  0.13857832  0.49852612  0.28445606     0.15800
C1159       C  0.08524680  0.44692044  0.70038771    -0.11500
C1160       C  0.09200890  0.46396027  0.74172339     0.15100
C1161       C  0.08500233  0.48652023  0.74416559     0.02000
C1162       C  0.07158510  0.49157955  0.70522651    -0.15800
C1163       C  0.06447856  0.47433767  0.66383615    -0.10600
C1164       C  0.07114026  0.45144204  0.66195266     0.08700
C1165       C  0.10683335  0.45792175  0.78116739     0.09700
S1166       S  0.09247731  0.50955157  0.79581416    -0.25000
H1167       H  0.06654941  0.50913133  0.70738237     0.20000
S1168       S  0.06085104  0.42610374  0.61302216    -0.30700
H1169       H  0.09046051  0.42948229  0.69851135     0.10300
C1170       C  0.09202864  0.43206630  0.80860771     0.03500
C1171       C  0.10720772  0.42683185  0.84475241    -0.13000
C1172       C  0.13695277  0.44682281  0.85356107    -0.08600
C1173       C  0.15143904  0.47314468  0.82698462     0.07000
C1174       C  0.13633009  0.47825806  0.79087058    -0.13700
S1175       S  0.05384947  0.40572711  0.79748404    -0.30600
H1176       H  0.09619466  0.40672499  0.86523444     0.11200
S1177       S  0.18902293  0.50124172  0.83789598    -0.27700
H1178       H  0.14762657  0.49826254  0.77013135     0.08400
H1179       H  0.03320019  0.42352613  0.60643438     0.26900
H1180       H  0.05011851  0.38687306  0.83554996     0.21700
H1181       H  0.18849581  0.49616641  0.88705279     0.27000
H1182       H  0.09041741  0.48893060  0.82955436     0.15800
C1183       C  0.06490164  0.60929436  0.25765224    -0.11500
C1184       C  0.09473725  0.63026686  0.26123022     0.15100
C1185       C  0.11030828  0.63146406  0.30283871     0.02000
C1186       C  0.09548144  0.61198687  0.34025065    -0.15800
C1187       C  0.06544329  0.59104863  0.33689724    -0.10600
C1188       C  0.05005673  0.59002732  0.29497219     0.08700
C1189       C  0.10790889  0.65237740  0.22300864     0.09700
S1190       S  0.14899528  0.65718695  0.31036731    -0.25000
H1191       H  0.10760090  0.61290072  0.37193430     0.20000
S1192       S  0.01102749  0.56640663  0.28805123    -0.30700
H1193       H  0.05277483  0.60876993  0.22618542     0.10300
C1194       C  0.11327908  0.64503644  0.17739142     0.03500
C1195       C  0.12501697  0.66672334  0.14204777    -0.13000
C1196       C  0.13153403  0.69557044  0.15154132    -0.08600
C1197       C  0.12490893  0.70244089  0.19668950     0.07000
C1198       C  0.11352359  0.68090963  0.23203156    -0.13700
S1199       S  0.10616269  0.60840539  0.16468984    -0.30600
H1200       H  0.13007554  0.66147914  0.10738099     0.11200
S1201       S  0.12943257  0.73789086  0.21075229    -0.27700
H1202       H  0.10852212  0.68627006  0.26668889     0.08400
H1203       H  0.00459099  0.57142365  0.33445140     0.26900
H1204       H  0.11796125  0.61424351  0.11846449     0.21700
H1205       H  0.12371076  0.74389408  0.16450345     0.27000
H1206       H  0.15626231  0.66157020  0.26184813     0.15800
C1207       C  0.09977905  0.63116628  0.70554263    -0.11500
C1208       C  0.08028811  0.63363916  0.73659814     0.15100
C1209       C  0.04970347  0.61509794  0.73050974     0.02000
C1210       C  0.03944180  0.59430848  0.69390678    -0.15800
C1211       C  0.05899484  0.59194950  0.66275451    -0.10600
C1212       C  0.08949641  0.61034285  0.66909231     0.08700
C1213       C  0.09307317  0.65502929  0.77584695     0.09700
S1214       S  0.02263286  0.61665246  0.76785382    -0.25000
H1215       H  0.01596179  0.58019851  0.68909924     0.20000
S1216       S  0.11631866  0.60729908  0.63347586    -0.30700
H1217       H  0.12325206  0.64508610  0.71060024     0.10300
C1218       C  0.09560032  0.64619280  0.82197551     0.03500
C1219       C  0.11150219  0.66760408  0.85652090    -0.13000
C1220       C  0.12487649  0.69772381  0.84583872    -0.08600
C1221       C  0.12047799  0.70629681  0.80030894     0.07000
C1222       C  0.10516311  0.68493078  0.76566590    -0.13700
S1223       S  0.08012887  0.60774157  0.83598577    -0.30600
H1224       H  0.11471300  0.66086363  0.89128561     0.11200
S1225       S  0.13320808  0.74396347  0.78441179    -0.27700
H1226       H  0.10276023  0.69164324  0.73033347     0.08400
H1227       H  0.09959762  0.57665234  0.62760261     0.26900
H1228       H  0.08564656  0.61148346  0.88512005     0.21700
H1229       H  0.12876254  0.75224063  0.82983344     0.27000
H1230       H  0.04039714  0.64557609  0.78401494     0.15800
C1231       C  0.39713219  0.92066197  0.25101232    -0.11500
C1232       C  0.36851756  0.91506288  0.25909831     0.15100
C1233       C  0.36094796  0.92066554  0.30437022     0.02000
C1234       C  0.38183000  0.93103101  0.34082120    -0.15800
C1235       C  0.41053649  0.93643982  0.33318919    -0.10600
C1236       C  0.41812996  0.93108288  0.28738698     0.08700
C1237       C  0.34598521  0.89910925  0.22223910     0.09700
S1238       S  0.32489790  0.91477707  0.31781479    -0.25000
H1239       H  0.37573278  0.93557591  0.37521907     0.20000
S1240       S  0.45357219  0.93558908  0.27329913    -0.30700
H1241       H  0.40277700  0.91569061  0.21655616     0.10300
C1242       C  0.34335754  0.91297004  0.18124180     0.03500
C1243       C  0.32192613  0.89617529  0.14702388    -0.13000
C1244       C  0.30332305  0.86571272  0.15284823    -0.08600
C1245       C  0.30697170  0.85196166  0.19352758     0.07000
C1246       C  0.32765937  0.86885548  0.22797053    -0.13700
S1247       S  0.36677387  0.95204431  0.17322110    -0.30600
H1248       H  0.31938934  0.90682945  0.11597387     0.11200
S1249       S  0.28774022  0.81278836  0.20254300    -0.27700
H1250       H  0.33027584  0.85813533  0.25893641     0.08400
H1251       H  0.45734433  0.92573948  0.31765345     0.26900
H1252       H  0.35546286  0.95375216  0.12881283     0.21700
H1253       H  0.28866897  0.80581164  0.15460748     0.27000
H1254       H  0.31873745  0.92038993  0.27166208     0.15800
C1255       C  0.31434010  0.88844557  0.76508350    -0.11500
C1256       C  0.34287491  0.89308452  0.76970233     0.15100
C1257       C  0.35101799  0.88478503  0.81213955     0.02000
C1258       C  0.33047874  0.87185303  0.84880992    -0.15800
C1259       C  0.30160711  0.86622626  0.84364142    -0.10600
C1260       C  0.29369668  0.87526796  0.80159879     0.08700
C1261       C  0.36406548  0.90778727  0.73057369     0.09700
S1262       S  0.38695820  0.88929682  0.82098497    -0.25000
H1263       H  0.33666340  0.86479263  0.88070036     0.20000
S1264       S  0.25795817  0.87132581  0.79290686    -0.30700
H1265       H  0.30820840  0.89535500  0.73291677     0.10300
C1266       C  0.36296903  0.89277166  0.68850181     0.03500
C1267       C  0.38373375  0.90762389  0.65253735    -0.13000
C1268       C  0.40570899  0.93720894  0.65786184    -0.08600
C1269       C  0.40618932  0.95226011  0.69990215     0.07000
C1270       C  0.38566943  0.93732373  0.73584378    -0.13700
S1271       S  0.33591005  0.85437936  0.68156479    -0.30600
H1272       H  0.38331861  0.89594693  0.62061616     0.11200
S1273       S  0.43127129  0.99082377  0.70899737    -0.27700
H1274       H  0.38622402  0.94894229  0.76797848     0.08400
H1275       H  0.25280097  0.87401614  0.84119944     0.26900
H1276       H  0.34509488  0.85072694  0.63640594     0.21700
H1277       H  0.42933412  0.99834748  0.66178078     0.27000
H1278       H  0.39200858  0.88532146  0.77324348     0.15800
C1279       C  0.55086498  0.90305430  0.18013754    -0.11500
C1280       C  0.55576178  0.89796244  0.22718140     0.15100
C1281       C  0.56731317  0.87952736  0.23646066     0.02000
C1282       C  0.57249978  0.86551273  0.19880119    -0.15800
C1283       C  0.56674117  0.86955421  0.15131651    -0.10600
C1284       C  0.55658868  0.88949137  0.14209651     0.08700
C1285       C  0.54756172  0.91125310  0.26602351     0.09700
S1286       S  0.57476054  0.87207347  0.29578392    -0.25000
H1287       H  0.58084732  0.85095894  0.20705996     0.20000
S1288       S  0.54919635  0.89784525  0.08347381    -0.30700
H1289       H  0.54221781  0.91751154  0.17307944     0.10300
C1290       C  0.56702873  0.93989621  0.28201783     0.03500
C1291       C  0.55807487  0.95199179  0.31816065    -0.13000
C1292       C  0.53032141  0.93558943  0.33940181    -0.08600
C1293       C  0.51123253  0.90637651  0.32454793     0.07000
C1294       C  0.52003677  0.89466093  0.28768730    -0.13700
S1295       S  0.60364835  0.96031457  0.25771862    -0.30600
H1296       H  0.57285586  0.97410996  0.33049588     0.11200
S1297       S  0.47548854  0.88266647  0.35043502    -0.27700
H1298       H  0.50535444  0.87239209  0.27576586     0.08400
H1299       H  0.57824629  0.90890236  0.06784142     0.26900
H1300       H  0.61437463  0.98360895  0.29049753     0.21700
H1301       H  0.47331050  0.90308378  0.37957017     0.27000
H1302       H  0.58418792  0.90029979  0.31383681     0.15800
C1303       C  0.57554883  0.91203807  0.80439285    -0.11500
C1304       C  0.55397356  0.89572100  0.77028388     0.15100
C1305       C  0.53949010  0.86476806  0.77162001     0.02000
C1306       C  0.54608030  0.85086879  0.80782869    -0.15800
C1307       C  0.56722048  0.86706258  0.84264524    -0.10600
C1308       C  0.58218266  0.89805199  0.84065589     0.08700
C1309       C  0.54670673  0.91150232  0.73418900     0.09700
S1310       S  0.51236605  0.84172629  0.72834246    -0.25000
H1311       H  0.53445737  0.82707406  0.80891569     0.20000
S1312       S  0.61085158  0.92062784  0.88188499    -0.30700
H1313       H  0.58703592  0.93581633  0.80303509     0.10300
C1314       C  0.52055859  0.91262929  0.73677471     0.03500
C1315       C  0.51404788  0.92688237  0.70071906    -0.13000
C1316       C  0.53319027  0.94007735  0.66213110    -0.08600
C1317       C  0.55999482  0.93992792  0.66083986     0.07000
C1318       C  0.56627027  0.92540348  0.69653579    -0.13700
S1319       S  0.49557713  0.89601355  0.78609936    -0.30600
H1320       H  0.49367276  0.92722428  0.70201201     0.11200
S1321       S  0.58761533  0.95874199  0.61581092    -0.27700
H1322       H  0.58661220  0.92496149  0.69505881     0.08400
H1323       H  0.59102980  0.91388129  0.91978992     0.26900
H1324       H  0.47440425  0.90306292  0.77096513     0.21700
H1325       H  0.58216479  0.98212141  0.61008953     0.27000
H1326       H  0.52429794  0.86141054  0.69007801     0.15800
C1327       C  0.63936037  0.10171887  0.30144977    -0.11500
C1328       C  0.63769129  0.08284520  0.26481997     0.15100
C1329       C  0.61488882  0.05322748  0.26560511     0.02000
C1330       C  0.59397823  0.04342850  0.30197046    -0.15800
C1331       C  0.59542529  0.06231238  0.33849414    -0.10600
C1332       C  0.61835434  0.09194229  0.33782908     0.08700
C1333       C  0.65901257  0.09533060  0.22504274     0.09700
S1334       S  0.61107821  0.02694502  0.22106765    -0.25000
H1335       H  0.57662456  0.02063307  0.30213176     0.20000
S1336       S  0.62103604  0.11880856  0.38030505    -0.30700
H1337       H  0.65658750  0.12457005  0.30069097     0.10300
C1338       C  0.65011463  0.09806005  0.17899881     0.03500
C1339       C  0.67128300  0.11155485  0.14316762    -0.13000
C1340       C  0.70142520  0.12431243  0.15293031    -0.08600
C1341       C  0.71011822  0.12028109  0.19862172     0.07000
C1342       C  0.68888646  0.10598406  0.23406717    -0.13700
S1343       S  0.61224145  0.08706488  0.16685480    -0.30600
H1344       H  0.66440784  0.11373146  0.10797912     0.11200
S1345       S  0.74774052  0.13227270  0.21379795    -0.27700
H1346       H  0.69573173  0.10347455  0.26922515     0.08400
H1347       H  0.59054932  0.10701673  0.38512324     0.26900
H1348       H  0.61498665  0.09011992  0.11718561     0.21700
H1349       H  0.75567932  0.12774045  0.16816765     0.27000
H1350       H  0.64125682  0.03957251  0.21168517     0.15800
C1351       C  0.63734484  0.09991288  0.69577146    -0.11500
C1352       C  0.63543457  0.08194526  0.73394498     0.15100
C1353       C  0.61171872  0.05280964  0.73613349     0.02000
C1354       C  0.59042962  0.04240381  0.70031209    -0.15800
C1355       C  0.59249748  0.06031203  0.66177081    -0.10600
C1356       C  0.61617308  0.08955987  0.65993205     0.08700
C1357       C  0.65692809  0.09546615  0.77296251     0.09700
S1358       S  0.60771508  0.02774524  0.78306656    -0.25000
H1359       H  0.57256280  0.01984376  0.70183228     0.20000
S1360       S  0.61991524  0.11531681  0.61440905    -0.30700
H1361       H  0.65506773  0.12255047  0.69469751     0.10300
C1362       C  0.68717854  0.10657876  0.76566236     0.03500
C1363       C  0.70713635  0.12298301  0.80173385    -0.13000
C1364       C  0.69741260  0.12834823  0.84513685    -0.08600
C1365       C  0.66689666  0.11642615  0.85247417     0.07000
C1366       C  0.64710168  0.09999411  0.81661710    -0.13700
S1367       S  0.70023336  0.09952842  0.71062555    -0.30600
H1368       H  0.73041507  0.13173510  0.79611720     0.11200
S1369       S  0.65181739  0.12351014  0.90480109    -0.27700
H1370       H  0.62387485  0.09187543  0.82189766     0.08400
H1371       H  0.58962488  0.10502017  0.61073022     0.26900
H1372       H  0.73033051  0.11537190  0.72175330     0.21700
H1373       H  0.67303574  0.15355471  0.90552019     0.27000
H1374       H  0.63790959  0.04015568  0.79216133     0.15800
C1375       C  0.45060395  0.06050675  0.25863367    -0.11500
C1376       C  0.46152143  0.09083219  0.25854733     0.15100
C1377       C  0.47952605  0.10798841  0.29657035     0.02000
C1378       C  0.48578980  0.09439667  0.33402106    -0.15800
C1379       C  0.47491336  0.06398421  0.33402073    -0.10600
C1380       C  0.45684523  0.04695564  0.29589201     0.08700
C1381       C  0.45178683  0.10350313  0.22042655     0.09700
S1382       S  0.49527531  0.14728755  0.29907674    -0.25000
H1383       H  0.49966853  0.10772438  0.36294675     0.20000
S1384       S  0.43918743  0.00756986  0.29427348    -0.30700
H1385       H  0.43623671  0.04712706  0.23017472     0.10300
C1386       C  0.46082137  0.10502508  0.17281418     0.03500
C1387       C  0.45191590  0.11838657  0.13856454    -0.13000
C1388       C  0.43370106  0.12984078  0.15073467    -0.08600
C1389       C  0.42300451  0.12619649  0.19788022     0.07000
C1390       C  0.43258048  0.11366795  0.23218979    -0.13700
S1391       S  0.48486557  0.09131215  0.15610413    -0.30600
H1392       H  0.46016624  0.12098574  0.10259371     0.11200
S1393       S  0.39623296  0.13597038  0.21622436    -0.27700
H1394       H  0.42472740  0.11150273  0.26840247     0.08400
H1395       H  0.43200653  0.00406037  0.34291190     0.26900
H1396       H  0.48524176  0.09662019  0.10704858     0.21700
H1397       H  0.38078809  0.12790844  0.17291833     0.27000
H1398       H  0.49775740  0.15182980  0.24964850     0.15800
C1399       C  0.43930487  0.09371283  0.81111354    -0.11500
C1400       C  0.45572900  0.10975030  0.77154341     0.15100
C1401       C  0.46384579  0.13954562  0.76723198     0.02000
C1402       C  0.45536317  0.15259550  0.80233280    -0.15800
C1403       C  0.43908861  0.13679230  0.84247042    -0.10600
C1404       C  0.43061616  0.10669812  0.84624051     0.08700
C1405       C  0.46220657  0.09429294  0.73368250     0.09700
S1406       S  0.48507788  0.16219343  0.71791560    -0.25000
H1407       H  0.46229443  0.17566348  0.79869416     0.20000
S1408       S  0.40746923  0.08314565  0.89319263    -0.30700
H1409       H  0.43252037  0.07063715  0.81395090     0.10300
C1410       C  0.48537973  0.08836473  0.73784988     0.03500
C1411       C  0.49060466  0.07366096  0.70082163    -0.13000
C1412       C  0.47308332  0.06473712  0.65961976    -0.08600
C1413       C  0.44935907  0.07011878  0.65640256     0.07000
C1414       C  0.44455445  0.08522257  0.69296047    -0.13700
S1415       S  0.50878873  0.10036279  0.78965432    -0.30600
H1416       H  0.50867096  0.06945734  0.70363866     0.11200
S1417       S  0.42334205  0.05693036  0.60813292    -0.27700
H1418       H  0.42645207  0.08940665  0.69015810     0.08400
H1419       H  0.38900690  0.09529538  0.89411247     0.26900
H1420       H  0.52796034  0.09067814  0.77448176     0.21700
H1421       H  0.42272618  0.03006353  0.60293765     0.27000
H1422       H  0.50047089  0.14737653  0.70836362     0.15800
loop_ 
_geom_bond_atom_site_label_1 
_geom_bond_atom_site_label_2 
_geom_bond_distance 
_geom_bond_site_symmetry_2 
_ccdc_geom_bond_type 
O1          Zr13   2.452       .  S
O1            C3   1.290       .  A
O2          Zr39   2.419   1_545  S
O2            C3   1.286       .  A
C3         C1412   1.484       .  S
O4          Zr16   2.454       .  S
O4            C6   1.290       .  A
O5          Zr40   2.418       .  S
O5            C6   1.285       .  A
C6         C1235   1.487       .  S
O7          Zr16   2.450       .  S
O7            C9   1.290       .  A
O8          Zr39   2.422       .  S
O8            C9   1.286       .  A
C9         C1268   1.484       .  S
O10         Zr13   2.456       .  S
O10          C12   1.291       .  A
O11         Zr40   2.421   1_545  S
O11          C12   1.286       .  A
C12        C1379   1.483       .  S
Zr13         O14   2.434       .  S
Zr13         O15   2.435       .  S
Zr13         O19   2.375   1_545  S
Zr13         O20   2.371   1_545  S
Zr13         O43   2.376       .  S
Zr13         O45   2.376       .  S
O14          H57   0.990       .  S
O15          H56   0.990       .  S
O15          H60   0.990       .  S
Zr16         O17   2.437       .  S
Zr16         O18   2.436       .  S
Zr16         O20   2.374       .  S
Zr16         O19   2.377       .  S
Zr16         O44   2.375       .  S
Zr16         O46   2.373       .  S
O17          H58   0.990       .  S
O17          H61   0.990       .  S
O18          H51   0.990       .  S
O19         Zr39   2.380       .  S
O20         Zr40   2.382       .  S
O20          H47   0.966       .  S
O21         Zr33   2.449       .  S
O21          C23   1.289       .  A
O22         Zr40   2.418   1_545  S
O22          C23   1.286       .  A
C23        C1331   1.481       .  S
O24         Zr36   2.443       .  S
O24          C26   1.288       .  A
O25         Zr39   2.423       .  S
O25          C26   1.286       .  A
C26        C1316   1.480       .  S
O27         Zr36   2.444       .  S
O27          C29   1.288       .  A
O28         Zr40   2.420       .  S
O28          C29   1.285       .  A
C29        C1292   1.466       .  S
O30         Zr33   2.435       .  S
O30          C32   1.287       .  A
O31         Zr39   2.417   1_545  S
O31          C32   1.285       .  A
C32        C1355   1.476       .  S
Zr33         O34   2.436       .  S
Zr33         O35   2.434       .  S
Zr33         O41   2.367   1_545  S
Zr33         O42   2.371   1_545  S
Zr33         O45   2.373       .  S
Zr33         O43   2.373       .  S
O34          H54   0.990       .  S
O34          H59   0.990       .  S
O35          H55   0.990       .  S
Zr36         O37   2.433       .  S
Zr36         O38   2.434       .  S
Zr36         O42   2.368       .  S
Zr36         O41   2.372       .  S
Zr36         O46   2.373       .  S
Zr36         O44   2.372       .  S
O37          H53   0.990       .  S
O38          H52   0.990       .  S
O38          H62   0.990       .  S
Zr39         O42   2.376       .  S
Zr39         O44   2.385       .  S
Zr39         O45   2.386   1_565  S
Zr40         O41   2.381       .  S
Zr40         O43   2.380   1_565  S
Zr40         O46   2.382       .  S
O41          H49   0.965       .  S
O44          H48   0.966       .  S
O45          H50   0.965       .  S
O63         Zr75   2.449       .  S
O63          C65   1.289       .  A
O64        Zr101   2.404   1_455  S
O64          C65   1.282       .  A
C65        C1211   1.469       .  S
O66         Zr78   2.445       .  S
O66          C68   1.288       .  A
O67        Zr102   2.417       .  S
O67          C68   1.286       .  A
C68        C1052   1.484       .  S
O69         Zr78   2.448       .  S
O69          C71   1.288       .  A
O70        Zr101   2.420       .  S
O70          C71   1.284       .  A
C71        C1067   1.471       .  S
O72         Zr75   2.459       .  S
O72          C74   1.291       .  A
O73        Zr102   2.409   1_455  S
O73          C74   1.283       .  A
C74        C1187   1.482       .  S
Zr75         O76   2.434       .  S
Zr75         O77   2.436       .  S
Zr75         O81   2.374       .  S
Zr75         O82   2.372       .  S
Zr75        O105   2.371       .  S
Zr75        O107   2.375       .  S
O76         H119   0.990       .  S
O77         H118   0.990       .  S
O77         H122   0.990       .  S
Zr78         O79   2.433       .  S
Zr78         O80   2.434       .  S
Zr78         O82   2.376   1_655  S
Zr78         O81   2.367   1_655  S
Zr78        O106   2.374       .  S
Zr78        O108   2.377       .  S
O79         H120   0.990       .  S
O79         H123   0.990       .  S
O80         H113   0.990       .  S
O81        Zr101   2.372   1_455  S
O82        Zr102   2.382   1_455  S
O82         H109   0.967       .  S
O83         Zr95   2.454       .  S
O83          C85   1.290       .  A
O84        Zr102   2.413   1_455  S
O84          C85   1.285       .  A
C85        C1148   1.483       .  S
O86         Zr98   2.451       .  S
O86          C88   1.290       .  A
O87        Zr101   2.403       .  S
O87          C88   1.283       .  A
C88        C1115   1.475       .  S
O89         Zr98   2.463       .  S
O89          C91   1.292       .  A
O90        Zr102   2.413       .  S
O90          C91   1.284       .  A
C91        C1091   1.484       .  S
O92         Zr95   2.454       .  S
O92          C94   1.290       .  A
O93        Zr101   2.416   1_455  S
O93          C94   1.285       .  A
C94        C1163   1.484       .  S
Zr95         O96   2.432       .  S
Zr95         O97   2.436       .  S
Zr95        O103   2.375   1_455  S
Zr95        O104   2.370   1_455  S
Zr95        O107   2.377       .  S
Zr95        O105   2.375       .  S
O96         H116   0.989       .  S
O96         H121   0.990       .  S
O97         H117   0.990       .  S
Zr98         O99   2.433       .  S
Zr98        O100   2.434       .  S
Zr98        O104   2.374       .  S
Zr98        O103   2.369       .  S
Zr98        O108   2.375       .  S
Zr98        O106   2.375       .  S
O99         H115   0.990       .  S
O100        H114   0.990       .  S
O100        H124   0.990       .  S
Zr101       O104   2.375       .  S
Zr101       O106   2.382       .  S
Zr101       O107   2.386   1_655  S
Zr102       O103   2.381       .  S
Zr102       O105   2.380   1_655  S
Zr102       O108   2.379       .  S
O103        H111   0.966       .  S
O106        H110   0.966       .  S
O107        H112   0.964       .  S
O125       Zr137   2.449       .  S
O125        C127   1.289       .  A
O126       Zr163   2.416       .  S
O126        C127   1.285       .  A
C127        C971   1.477       .  S
O128       Zr140   2.445       .  S
O128        C130   1.288       .  A
O129       Zr164   2.414       .  S
O129        C130   1.285       .  A
C130        C995   1.480       .  S
O131       Zr140   2.445       .  S
O131        C133   1.288       .  A
O132       Zr163   2.417       .  S
O132        C133   1.285       .  A
C133       C1019   1.473       .  S
O134       Zr137   2.446       .  S
O134        C136   1.289       .  A
O135       Zr164   2.413       .  S
O135        C136   1.285       .  A
C136        C956   1.482       .  S
Zr137       O138   2.434       .  S
Zr137       O139   2.435       .  S
Zr137       O143   2.377       .  S
Zr137       O144   2.373       .  S
Zr137       O167   2.374       .  S
Zr137       O169   2.370       .  S
O138        H181   0.990       .  S
O139        H180   0.990       .  S
O139        H184   0.990       .  S
Zr140       O141   2.435       .  S
Zr140       O142   2.433       .  S
Zr140       O144   2.373       .  S
Zr140       O143   2.374       .  S
Zr140       O168   2.369       .  S
Zr140       O170   2.371       .  S
O141        H182   0.989       .  S
O141        H185   0.990       .  S
O142        H175   0.990       .  S
O143       Zr163   2.381       .  S
O144       Zr164   2.381       .  S
O144        H171   0.965       .  S
O145       Zr157   2.446       .  S
O145        C147   1.289       .  A
O146       Zr164   2.414       .  S
O146        C147   1.284       .  A
C147        C908   1.482       .  S
O148       Zr160   2.444       .  S
O148        C150   1.288       .  A
O149       Zr163   2.414       .  S
O149        C150   1.284       .  A
C150        C884   1.469       .  S
O151       Zr160   2.446       .  S
O151        C153   1.289       .  A
O152       Zr164   2.405       .  S
O152        C153   1.283       .  A
C153        C860   1.473       .  S
O154       Zr157   2.448       .  S
O154        C156   1.289       .  A
O155       Zr163   2.409       .  S
O155        C156   1.284       .  A
C156        C923   1.472       .  S
Zr157       O158   2.435       .  S
Zr157       O159   2.433       .  S
Zr157       O165   2.373       .  S
Zr157       O166   2.376       .  S
Zr157       O169   2.369       .  S
Zr157       O167   2.372       .  S
O158        H178   0.990       .  S
O158        H183   0.990       .  S
O159        H179   0.990       .  S
Zr160       O161   2.434       .  S
Zr160       O162   2.434       .  S
Zr160       O166   2.375       .  S
Zr160       O165   2.372       .  S
Zr160       O170   2.372       .  S
Zr160       O168   2.362       .  S
O161        H177   0.990       .  S
O162        H176   0.990       .  S
O162        H186   0.990       .  S
Zr163       O166   2.381       .  S
Zr163       O168   2.375       .  S
Zr163       O169   2.379       .  S
Zr164       O165   2.383       .  S
Zr164       O167   2.374       .  S
Zr164       O170   2.374       .  S
O165        H173   0.966       .  S
O168        H172   0.966       .  S
O169        H174   0.966       .  S
O187       Zr199   2.433   1_556  S
O187        C189   1.286       .  A
O188       Zr225   2.436       .  S
O188        C189   1.288   1_554  A
C189        C803   1.478       .  S
O190       Zr202   2.433       .  S
O190        C192   1.287       .  A
O191       Zr226   2.429   1_556  S
O191        C192   1.287       .  A
C192        C932   1.480       .  S
O193       Zr202   2.438       .  S
O193        C195   1.288       .  A
O194       Zr225   2.425   1_556  S
O194        C195   1.286       .  A
C195       C1076   1.493       .  S
O196       Zr199   2.439       .  S
O196        C198   1.288       .  A
O197       Zr226   2.425       .  S
O197        C198   1.286       .  A
C198        C836   1.479       .  S
Zr199       O200   2.433   1_554  S
Zr199       O201   2.436       .  S
Zr199       O205   2.369   1_554  S
Zr199       O206   2.364   1_554  S
Zr199       O229   2.360       .  S
Zr199       O231   2.365       .  S
O200        H243   0.990       .  S
O201        H242   0.990       .  S
O201        H246   0.990       .  S
Zr202       O203   2.436       .  S
Zr202       O204   2.435       .  S
Zr202       O206   2.374       .  S
Zr202       O205   2.368       .  S
Zr202       O230   2.369       .  S
Zr202       O232   2.372       .  S
O203        H244   0.990       .  S
O203        H247   0.990       .  S
O204        H237   0.990       .  S
O205       Zr225   2.377   1_556  S
O206       Zr226   2.380   1_556  S
O206        H233   0.966       .  S
O207       Zr219   2.434       .  S
O207        C209   1.286       .  A
O208       Zr226   2.409       .  S
O208        C209   1.283       .  A
C209        C899   1.468       .  S
O210       Zr222   2.455       .  S
O210        C212   1.290       .  A
O211       Zr225   2.424   1_556  S
O211        C212   1.287       .  A
C212        C755   1.478       .  S
O213       Zr222   2.458       .  S
O213        C215   1.291       .  A
O214       Zr226   2.416       .  S
O214        C215   1.286   1_554  A
C215        C779   1.480   1_556  S
O216       Zr219   2.441       .  S
O216        C218   1.288       .  A
O217       Zr225   2.422       .  S
O217        C218   1.286       .  A
C218       C1043   1.483       .  S
Zr219       O220   2.434       .  S
Zr219       O221   2.435       .  S
Zr219       O227   2.365       .  S
Zr219       O228   2.365       .  S
Zr219       O231   2.375       .  S
Zr219       O229   2.370       .  S
O220        H240   0.990       .  S
O220        H245   0.990       .  S
O221        H241   0.990       .  S
Zr222       O223   2.435   1_556  S
Zr222       O224   2.434       .  S
Zr222       O228   2.384   1_556  S
Zr222       O227   2.380   1_556  S
Zr222       O232   2.380       .  S
Zr222       O230   2.376       .  S
O223        H239   0.990       .  S
O224        H238   0.990       .  S
O224        H248   0.990       .  S
Zr225       O228   2.388       .  S
Zr225       O230   2.389   1_554  S
Zr225       O231   2.386       .  S
Zr226       O227   2.393       .  S
Zr226       O229   2.379       .  S
Zr226       O232   2.383   1_554  S
O227        H235   0.966       .  S
O230        H234   0.964       .  S
O231        H236   0.965       .  S
O249       Zr261   2.424       .  S
O249        C251   1.284       .  A
O250       Zr287   2.443   1_554  S
O250        C251   1.289   1_554  A
C251        C731   1.473       .  S
O252       Zr264   2.429       .  S
O252        C254   1.286       .  A
O253       Zr288   2.431       .  S
O253        C254   1.288       .  A
C254       C1124   1.478       .  S
O255       Zr264   2.440       .  S
O255        C257   1.288       .  A
O256       Zr287   2.426       .  S
O256        C257   1.287       .  A
C257       C1364   1.482       .  S
O258       Zr261   2.431   1_554  S
O258        C260   1.286       .  A
O259       Zr288   2.439       .  S
O259        C260   1.288   1_556  A
C260        C812   1.480       .  S
Zr261       O262   2.434       .  S
Zr261       O263   2.434   1_556  S
Zr261       O267   2.368       .  S
Zr261       O268   2.360       .  S
Zr261       O291   2.365   1_556  S
Zr261       O293   2.371   1_556  S
O262        H305   0.990       .  S
O263        H304   0.990       .  S
O263        H308   0.990       .  S
Zr264       O265   2.436       .  S
Zr264       O266   2.435       .  S
Zr264       O268   2.372       .  S
Zr264       O267   2.371       .  S
Zr264       O292   2.364       .  S
Zr264       O294   2.377       .  S
O265        H306   0.990       .  S
O265        H309   0.990       .  S
O266        H299   0.990       .  S
O267       Zr287   2.375       .  S
O268       Zr288   2.379       .  S
O268        H295   0.966       .  S
O269       Zr281   2.443       .  S
O269        C271   1.288       .  A
O270       Zr288   2.428   1_554  S
O270        C271   1.287       .  A
C271       C1100   1.483       .  S
O272       Zr284   2.467       .  S
O272        C274   1.293       .  A
O273       Zr287   2.411       .  S
O273        C274   1.285       .  A
C274        C683   1.478       .  S
O275       Zr284   2.465       .  S
O275        C277   1.292   1_556  A
O276       Zr288   2.419   1_554  S
O276        C277   1.286       .  A
C277        C707   1.481       .  S
O278       Zr281   2.450       .  S
O278        C280   1.289       .  A
O279       Zr287   2.426   1_554  S
O279        C280   1.287       .  A
C280       C1340   1.488       .  S
Zr281       O282   2.436       .  S
Zr281       O283   2.433       .  S
Zr281       O289   2.369       .  S
Zr281       O290   2.370       .  S
Zr281       O293   2.370       .  S
Zr281       O291   2.375       .  S
O282        H302   0.989       .  S
O282        H307   0.990       .  S
O283        H303   0.990       .  S
Zr284       O285   2.435   1_556  S
Zr284       O286   2.436       .  S
Zr284       O290   2.381   1_556  S
Zr284       O289   2.380   1_556  S
Zr284       O294   2.380       .  S
Zr284       O292   2.376       .  S
O285        H301   0.990       .  S
O286        H300   0.990       .  S
O286        H310   0.990       .  S
Zr287       O290   2.388   1_556  S
Zr287       O292   2.389       .  S
Zr287       O293   2.379   1_556  S
Zr288       O289   2.392   1_556  S
Zr288       O291   2.378   1_556  S
Zr288       O294   2.391       .  S
O289        H297   0.966       .  S
O292        H296   0.966       .  S
O293        H298   0.966       .  S
O311       Zr323   2.447       .  S
O311        C313   1.289       .  A
O312       Zr349   2.436       .  S
O312        C313   1.288   1_556  A
C313        C659   1.484       .  S
O314       Zr326   2.446       .  S
O314        C316   1.289       .  A
O315       Zr350   2.424       .  S
O315        C316   1.286       .  A
C316       C1220   1.483       .  S
O317       Zr326   2.436       .  S
O317        C319   1.287       .  A
O318       Zr349   2.431       .  S
O318        C319   1.288       .  A
C319       C1259   1.476       .  S
O320       Zr323   2.434       .  S
O320        C322   1.287       .  A
O321       Zr350   2.419   1_554  S
O321        C322   1.284       .  A
C322        C644   1.468       .  S
Zr323       O324   2.434   1_554  S
Zr323       O325   2.435       .  S
Zr323       O329   2.367   1_554  S
Zr323       O330   2.371   1_554  S
Zr323       O353   2.362       .  S
Zr323       O355   2.364       .  S
O324        H367   0.990       .  S
O325        H366   0.990       .  S
O325        H370   0.990       .  S
Zr326       O327   2.435       .  S
Zr326       O328   2.435       .  S
Zr326       O330   2.374       .  S
Zr326       O329   2.376       .  S
Zr326       O354   2.371       .  S
Zr326       O356   2.370       .  S
O327        H368   0.990       .  S
O327        H371   0.990       .  S
O328        H361   0.990       .  S
O329       Zr349   2.380       .  S
O330       Zr350   2.381       .  S
O330        H357   0.965       .  S
O331       Zr343   2.437       .  S
O331        C333   1.287       .  A
O332       Zr350   2.416   1_554  S
O332        C333   1.284       .  A
C333       C1196   1.473       .  S
O334       Zr346   2.463       .  S
O334        C336   1.292       .  A
O335       Zr349   2.425       .  S
O335        C336   1.289       .  A
C336        C611   1.496       .  S
O337       Zr346   2.469       .  S
O337        C339   1.293       .  A
O338       Zr350   2.412       .  S
O338        C339   1.285       .  A
C339        C764   1.484   1_556  S
O340       Zr343   2.440       .  S
O340        C342   1.288       .  A
O341       Zr349   2.435   1_554  S
O341        C342   1.289       .  A
C342       C1244   1.485       .  S
Zr343       O344   2.435       .  S
Zr343       O345   2.431       .  S
Zr343       O351   2.366       .  S
Zr343       O352   2.370       .  S
Zr343       O355   2.373       .  S
Zr343       O353   2.365       .  S
O344        H364   0.990       .  S
O344        H369   0.990       .  S
O345        H365   0.991       .  S
Zr346       O347   2.433   1_556  S
Zr346       O348   2.434       .  S
Zr346       O352   2.384   1_556  S
Zr346       O351   2.380   1_556  S
Zr346       O356   2.376       .  S
Zr346       O354   2.376       .  S
O347        H363   0.990       .  S
O348        H362   0.990       .  S
O348        H372   0.990       .  S
Zr349       O352   2.390   1_556  S
Zr349       O354   2.388       .  S
Zr349       O355   2.384   1_556  S
Zr350       O351   2.390   1_556  S
Zr350       O353   2.372   1_556  S
Zr350       O356   2.378       .  S
O351        H359   0.966       .  S
O354        H358   0.966       .  S
O355        H360   0.965       .  S
O373       Zr385   2.437       .  S
O373        C375   1.287       .  A
O374       Zr411   2.425       .  S
O374        C375   1.286       .  A
C375       C1307   1.479       .  S
O376       Zr388   2.436       .  S
O376        C378   1.287       .  A
O377       Zr412   2.411       .  S
O377        C378   1.283       .  A
C378        C587   1.464       .  S
O379       Zr388   2.434       .  S
O379        C381   1.286       .  A
O380       Zr411   2.426       .  S
O380        C381   1.286       .  A
C381        C668   1.474       .  S
O382       Zr385   2.453       .  S
O382        C384   1.291       .  A
O383       Zr412   2.416       .  S
O383        C384   1.283       .  A
C384        C980   1.487       .  S
Zr385       O386   2.434       .  S
Zr385       O387   2.434       .  S
Zr385       O391   2.373       .  S
Zr385       O392   2.370       .  S
Zr385       O415   2.367       .  S
Zr385       O417   2.372       .  S
O386        H429   0.990       .  S
O387        H428   0.990       .  S
O387        H432   0.990       .  S
Zr388       O389   2.435       .  S
Zr388       O390   2.434   1_556  S
Zr388       O392   2.363       .  S
Zr388       O391   2.364       .  S
Zr388       O416   2.366   1_556  S
Zr388       O418   2.372   1_556  S
O389        H430   0.990       .  S
O389        H433   0.990       .  S
O390        H423   0.990       .  S
O391       Zr411   2.377       .  S
O392       Zr412   2.383       .  S
O392        H419   0.965       .  S
O393       Zr405   2.459       .  S
O393        C395   1.291   1_554  A
O394       Zr412   2.411   1_554  S
O394        C395   1.285   1_554  A
C395        C788   1.482       .  S
O396       Zr408   2.432       .  S
O396        C398   1.288       .  A
O397       Zr411   2.425   1_554  S
O397        C398   1.285       .  A
C398       C1283   1.492       .  S
O399       Zr408   2.434       .  S
O399        C401   1.287       .  A
O400       Zr412   2.424   1_554  S
O400        C401   1.286       .  A
C401        C947   1.481       .  S
O402       Zr405   2.453       .  S
O402        C404   1.290       .  A
O403       Zr411   2.411   1_554  S
O403        C404   1.285       .  A
C404        C692   1.472       .  S
Zr405       O406   2.437       .  S
Zr405       O407   2.434   1_554  S
Zr405       O413   2.376       .  S
Zr405       O414   2.375       .  S
Zr405       O417   2.383   1_554  S
Zr405       O415   2.378   1_554  S
O406        H426   0.990       .  S
O406        H431   0.990       .  S
O407        H427   0.990       .  S
Zr408       O409   2.434       .  S
Zr408       O410   2.436       .  S
Zr408       O414   2.368       .  S
Zr408       O413   2.373       .  S
Zr408       O418   2.369       .  S
Zr408       O416   2.372       .  S
O409        H425   0.990       .  S
O410        H424   0.990       .  S
O410        H434   0.990       .  S
Zr411       O414   2.381   1_556  S
Zr411       O416   2.379   1_556  S
Zr411       O417   2.392       .  S
Zr412       O413   2.381   1_556  S
Zr412       O415   2.384       .  S
Zr412       O418   2.376   1_556  S
O413        H421   0.964       .  S
O416        H420   0.966       .  S
O417        H422   0.966       .  S
O435       Zr447   2.428       .  S
O435        C437   1.286       .  A
O436       Zr473   2.422       .  S
O436        C437   1.285       .  A
C437        C635   1.473       .  S
O438       Zr450   2.436       .  S
O438        C440   1.286       .  A
O439       Zr474   2.426       .  S
O439        C440   1.286       .  A
C440       C1028   1.481       .  S
O441       Zr450   2.433       .  S
O441        C443   1.286       .  A
O442       Zr473   2.428   1_556  S
O442        C443   1.286       .  A
C443       C1172   1.473       .  S
O444       Zr447   2.427       .  S
O444        C446   1.286       .  A
O445       Zr474   2.421       .  S
O445        C446   1.285   1_556  A
C446        C596   1.475       .  S
Zr447       O448   2.434   1_554  S
Zr447       O449   2.436       .  S
Zr447       O453   2.361   1_554  S
Zr447       O454   2.365   1_554  S
Zr447       O477   2.365       .  S
Zr447       O479   2.366       .  S
O448        H491   0.990       .  S
O449        H490   0.990       .  S
O449        H494   0.990       .  S
Zr450       O451   2.438       .  S
Zr450       O452   2.434       .  S
Zr450       O454   2.373       .  S
Zr450       O453   2.366       .  S
Zr450       O478   2.368       .  S
Zr450       O480   2.370       .  S
O451        H492   0.990       .  S
O451        H495   0.990       .  S
O452        H485   0.990       .  S
O453       Zr473   2.372   1_556  S
O454       Zr474   2.380       .  S
O454        H481   0.966       .  S
O455       Zr467   2.437       .  S
O455        C457   1.287       .  A
O456       Zr474   2.423   1_554  S
O456        C457   1.285       .  A
C457       C1004   1.477       .  S
O458       Zr470   2.471   1_554  S
O458        C460   1.294       .  A
O459       Zr473   2.414       .  S
O459        C460   1.286       .  A
C460        C716   1.484       .  S
O461       Zr470   2.475       .  S
O461        C463   1.294       .  A
O462       Zr474   2.410       .  S
O462        C463   1.285       .  A
C463        C563   1.491       .  S
O464       Zr467   2.442       .  S
O464        C466   1.288       .  A
O465       Zr473   2.417       .  S
O465        C466   1.285       .  A
C466       C1139   1.480       .  S
Zr467       O468   2.434       .  S
Zr467       O469   2.435       .  S
Zr467       O475   2.368       .  S
Zr467       O476   2.370       .  S
Zr467       O479   2.373       .  S
Zr467       O477   2.375       .  S
O468        H488   0.990       .  S
O468        H493   0.990       .  S
O469        H489   0.990       .  S
Zr470       O471   2.434   1_556  S
Zr470       O472   2.433       .  S
Zr470       O476   2.382   1_556  S
Zr470       O475   2.378   1_556  S
Zr470       O480   2.381       .  S
Zr470       O478   2.383       .  S
O471        H487   0.990       .  S
O472        H486   0.990       .  S
O472        H496   0.990       .  S
Zr473       O476   2.386       .  S
Zr473       O478   2.385   1_554  S
Zr473       O479   2.387       .  S
Zr474       O475   2.388   1_556  S
Zr474       O477   2.381   1_556  S
Zr474       O480   2.383       .  S
O475        H483   0.967       .  S
O478        H482   0.966       .  S
O479        H484   0.965       .  S
O497       Zr509   2.439       .  S
O497        C499   1.289       .  A
O498       Zr535   2.432       .  S
O498        C499   1.288       .  A
C499       C1403   1.491       .  S
O500       Zr512   2.430       .  S
O500        C502   1.286       .  A
O501       Zr536   2.437       .  S
O501        C502   1.288       .  A
C502        C827   1.481       .  S
O503       Zr512   2.433       .  S
O503        C505   1.287       .  A
O504       Zr535   2.432   1_554  S
O504        C505   1.287       .  A
C505        C740   1.478       .  S
O506       Zr509   2.441       .  S
O506        C508   1.289       .  A
O507       Zr536   2.429   1_556  S
O507        C508   1.287       .  A
C508        C875   1.490       .  S
Zr509       O510   2.433       .  S
Zr509       O511   2.434       .  S
Zr509       O515   2.374       .  S
Zr509       O516   2.374       .  S
Zr509       O539   2.368       .  S
Zr509       O541   2.370       .  S
O510        H553   0.990       .  S
O511        H552   0.990       .  S
O511        H556   0.990       .  S
Zr512       O513   2.435   1_554  S
Zr512       O514   2.433       .  S
Zr512       O516   2.364   1_554  S
Zr512       O515   2.367   1_554  S
Zr512       O540   2.364       .  S
Zr512       O542   2.368       .  S
O513        H554   0.990       .  S
O513        H557   0.990       .  S
O514        H547   0.990       .  S
O515       Zr535   2.380       .  S
O516       Zr536   2.381   1_556  S
O516        H543   0.966       .  S
O517       Zr529   2.474       .  S
O517        C519   1.294       .  A
O518       Zr536   2.418   1_556  S
O518        C519   1.286       .  A
C519        C572   1.486       .  S
O520       Zr532   2.448       .  S
O520        C522   1.289       .  A
O521       Zr535   2.429   1_554  S
O521        C522   1.287       .  A
C522       C1388   1.488       .  S
O523       Zr532   2.441       .  S
O523        C525   1.288       .  A
O524       Zr536   2.421       .  S
O524        C525   1.285       .  A
C525        C851   1.480       .  S
O526       Zr529   2.466       .  S
O526        C528   1.293       .  A
O527       Zr535   2.422       .  S
O527        C528   1.287       .  A
C528        C620   1.483       .  S
Zr529       O530   2.435   1_556  S
Zr529       O531   2.435       .  S
Zr529       O537   2.383   1_556  S
Zr529       O538   2.381   1_556  S
Zr529       O541   2.384       .  S
Zr529       O539   2.377       .  S
O530        H550   0.990       .  S
O530        H555   0.990       .  S
O531        H551   0.990       .  S
Zr532       O533   2.434       .  S
Zr532       O534   2.437       .  S
Zr532       O538   2.369       .  S
Zr532       O537   2.374       .  S
Zr532       O542   2.374       .  S
Zr532       O540   2.369       .  S
O533        H549   0.990       .  S
O534        H548   0.990       .  S
O534        H558   0.990       .  S
Zr535       O538   2.388   1_556  S
Zr535       O540   2.384   1_556  S
Zr535       O541   2.392       .  S
Zr536       O537   2.393       .  S
Zr536       O539   2.385   1_554  S
Zr536       O542   2.381       .  S
O537        H545   0.965       .  S
O540        H544   0.965       .  S
O541        H546   0.965       .  S
C559        C560   1.405       .  A
C559        C564   1.407       .  A
C559        H569   1.084       .  S
C560        C565   1.487       .  S
C560        C561   1.411   1_556  A
C561        C562   1.399       .  A
C561        S566   1.804       .  S
C562        C563   1.408   1_554  A
C562        H567   1.084       .  S
C563        C564   1.417       .  A
C564        S568   1.801       .  S
C565        C570   1.412   1_556  A
C565        C574   1.400       .  A
S566        H582   1.405       .  S
S568        H579   1.407       .  S
C570        C571   1.411       .  A
C570        S575   1.805       .  S
C571        C572   1.406   1_554  A
C571        H576   1.083       .  S
C572        C573   1.416       .  A
C573        C574   1.399       .  A
C573        S577   1.804       .  S
C574        H578   1.084       .  S
S575        H580   1.407       .  S
S577        H581   1.407       .  S
C583        C584   1.400       .  A
C583        C588   1.393       .  A
C583        H593   1.084       .  S
C584        C589   1.471   1_556  S
C584        C585   1.412   1_556  A
C585        C586   1.399       .  A
C585        S590   1.803       .  S
C586        C587   1.403   1_554  A
C586        H591   1.084       .  S
C587        C588   1.410       .  A
C588        S592   1.803       .  S
C589        C594   1.407       .  A
C589        C598   1.402   1_554  A
S590        H606   1.406       .  S
S592        H603   1.406       .  S
C594        C595   1.396       .  A
C594        S599   1.809       .  S
C595        C596   1.404       .  A
C595        H600   1.083       .  S
C596        C597   1.415   1_554  A
C597        C598   1.400       .  A
C597        S601   1.803       .  S
C598        H602   1.084       .  S
S599        H604   1.406       .  S
S601        H605   1.407       .  S
C607        C608   1.403   1_554  A
C607        C612   1.406       .  A
C607        H617   1.084       .  S
C608        C613   1.487   1_565  S
C608        C609   1.410       .  A
C609        C610   1.400       .  A
C609        S614   1.805       .  S
C610        C611   1.409       .  A
C610        H615   1.084       .  S
C611        C612   1.420   1_556  A
C612        S616   1.800       .  S
C613        C618   1.411       .  A
C613        C622   1.401   1_556  A
S614        H630   1.405   1_565  S
S616        H627   1.407       .  S
C618        C619   1.410       .  A
C618        S623   1.805       .  S
C619        C620   1.406       .  A
C619        H624   1.083       .  S
C620        C621   1.415   1_556  A
C621        C622   1.399       .  A
C621        S625   1.805       .  S
C622        H626   1.084       .  S
S623        H628   1.407       .  S
S625        H629   1.407       .  S
C631        C632   1.402       .  A
C631        C636   1.400       .  A
C631        H641   1.084       .  S
C632        C637   1.474       .  S
C632        C633   1.413   1_554  A
C633        C634   1.394       .  A
C633        S638   1.807       .  S
C634        C635   1.403   1_556  A
C634        H639   1.085       .  S
C635        C636   1.414       .  A
C636        S640   1.802       .  S
C637        C642   1.409   1_554  A
C637        C646   1.401       .  A
S638        H654   1.404       .  S
S640        H651   1.407       .  S
C642        C643   1.402       .  A
C642        S647   1.806       .  S
C643        C644   1.403   1_556  A
C643        H648   1.083       .  S
C644        C645   1.413       .  A
C645        C646   1.396       .  A
C645        S649   1.806       .  S
C646        H650   1.084       .  S
S647        H652   1.406       .  S
S649        H653   1.405       .  S
C655        C656   1.401   1_554  A
C655        C660   1.398       .  A
C655        H665   1.084       .  S
C656        C661   1.482       .  S
C656        C657   1.410       .  A
C657        C658   1.403       .  A
C657        S662   1.801       .  S
C658        C659   1.406   1_556  A
C658        H663   1.082       .  S
C659        C660   1.416       .  A
C660        S664   1.802       .  S
C661        C666   1.410   1_556  A
C661        C670   1.403       .  A
S662        H678   1.406       .  S
S664        H675   1.405       .  S
C666        C667   1.403       .  A
C666        S671   1.806       .  S
C667        C668   1.402   1_554  A
C667        H672   1.081       .  S
C668        C669   1.412       .  A
C669        C670   1.400       .  A
C669        S673   1.804       .  S
C670        H674   1.084       .  S
S671        H676   1.407       .  S
S673        H677   1.408       .  S
C679        C680   1.404       .  A
C679        C684   1.403       .  A
C679        H689   1.084       .  S
C680        C685   1.483   1_545  S
C680        C681   1.412   1_554  A
C681        C682   1.399       .  A
C681        S686   1.805       .  S
C682        C683   1.405       .  A
C682        H687   1.084       .  S
C683        C684   1.413   1_556  A
C684        S688   1.803       .  S
C685        C690   1.411   1_554  A
C685        C694   1.403       .  A
S686        H702   1.406   1_545  S
S688        H699   1.407       .  S
C690        C691   1.404       .  A
C690        S695   1.805       .  S
C691        C692   1.402   1_556  A
C691        H696   1.083       .  S
C692        C693   1.413       .  A
C693        C694   1.399       .  A
C693        S697   1.805       .  S
C694        H698   1.084       .  S
S695        H700   1.407       .  S
S697        H701   1.407       .  S
C703        C704   1.402       .  A
C703        C708   1.400       .  A
C703        H713   1.084       .  S
C704        C709   1.486   1_655  S
C704        C705   1.416   1_554  A
C705        C706   1.404       .  A
C705        S710   1.804       .  S
C706        C707   1.403   1_556  A
C706        H711   1.084       .  S
C707        C708   1.415       .  A
C708        S712   1.804       .  S
C709        C714   1.409   1_554  A
C709        C718   1.405       .  A
S710        H726   1.404   1_655  S
S712        H723   1.406       .  S
C714        C715   1.403       .  A
C714        S719   1.808       .  S
C715        C716   1.406   1_556  A
C715        H720   1.083       .  S
C716        C717   1.415       .  A
C717        C718   1.406       .  A
C717        S721   1.802       .  S
C718        H722   1.084       .  S
S719        H724   1.406       .  S
S721        H725   1.407       .  S
C727        C728   1.404   1_554  A
C727        C732   1.399       .  A
C727        H737   1.084       .  S
C728        C733   1.481   1_556  S
C728        C729   1.415       .  A
C729        C730   1.398       .  A
C729        S734   1.806       .  S
C730        C731   1.403       .  A
C730        H735   1.084       .  S
C731        C732   1.410   1_556  A
C732        S736   1.798       .  S
C733        C738   1.410   1_554  A
C733        C742   1.401       .  A
S734        H750   1.405       .  S
S736        H747   1.405       .  S
C738        C739   1.406       .  A
C738        S743   1.805       .  S
C739        C740   1.406   1_556  A
C739        H744   1.083       .  S
C740        C741   1.413       .  A
C741        C742   1.398       .  A
C741        S745   1.809       .  S
C742        H746   1.083       .  S
S743        H748   1.407       .  S
S745        H749   1.407       .  S
C751        C752   1.401       .  A
C751        C756   1.398       .  A
C751        H761   1.084       .  S
C752        C757   1.482   1_656  S
C752        C753   1.413   1_556  A
C753        C754   1.404       .  A
C753        S758   1.803       .  S
C754        C755   1.405   1_554  A
C754        H759   1.084       .  S
C755        C756   1.414       .  A
C756        S760   1.805       .  S
C757        C762   1.408       .  A
C757        C766   1.404   1_554  A
S758        H774   1.405   1_655  S
S760        H771   1.406       .  S
C762        C763   1.402       .  A
C762        S767   1.808       .  S
C763        C764   1.407       .  A
C763        H768   1.083       .  S
C764        C765   1.415   1_554  A
C765        C766   1.404       .  A
C765        S769   1.801       .  S
C766        H770   1.084       .  S
S767        H772   1.407       .  S
S769        H773   1.407       .  S
C775        C776   1.404   1_556  A
C775        C780   1.404       .  A
C775        H785   1.084       .  S
C776        C781   1.478       .  S
C776        C777   1.410       .  A
C777        C778   1.396       .  A
C777        S782   1.805       .  S
C778        C779   1.404       .  A
C778        H783   1.084       .  S
C779        C780   1.414   1_554  A
C780        S784   1.802       .  S
C781        C786   1.409       .  A
C781        C790   1.398   1_554  A
S782        H798   1.404       .  S
S784        H795   1.407       .  S
C786        C787   1.408       .  A
C786        S791   1.805       .  S
C787        C788   1.407   1_554  A
C787        H792   1.083       .  S
C788        C789   1.416       .  A
C789        C790   1.394       .  A
C789        S793   1.802       .  S
C790        H794   1.084       .  S
S791        H796   1.407       .  S
S793        H797   1.407       .  S
C799        C800   1.402   1_556  A
C799        C804   1.399       .  A
C799        H809   1.084       .  S
C800        C805   1.486       .  S
C800        C801   1.416       .  A
C801        C802   1.404       .  A
C801        S806   1.805       .  S
C802        C803   1.404   1_554  A
C802        H807   1.084       .  S
C803        C804   1.414       .  A
C804        S808   1.805       .  S
C805        C810   1.409       .  A
C805        C814   1.406   1_554  A
S806        H822   1.404       .  S
S808        H819   1.407       .  S
C810        C811   1.401       .  A
C810        S815   1.807       .  S
C811        C812   1.405       .  A
C811        H816   1.083       .  S
C812        C813   1.415   1_554  A
C813        C814   1.405       .  A
C813        S817   1.804       .  S
C814        H818   1.084       .  S
S815        H820   1.407       .  S
S817        H821   1.406       .  S
C823        C824   1.404       .  A
C823        C828   1.405       .  A
C823        H833   1.084       .  S
C824        C829   1.478       .  S
C824        C825   1.411   1_554  A
C825        C826   1.394       .  A
C825        S830   1.806       .  S
C826        C827   1.404   1_556  A
C826        H831   1.084       .  S
C827        C828   1.415       .  A
C828        S832   1.801       .  S
C829        C834   1.409   1_554  A
C829        C838   1.400       .  A
S830        H846   1.402       .  S
S832        H843   1.406       .  S
C834        C835   1.405       .  A
C834        S839   1.804       .  S
C835        C836   1.406   1_556  A
C835        H840   1.083       .  S
C836        C837   1.415       .  A
C837        C838   1.396       .  A
C837        S841   1.804       .  S
C838        H842   1.084       .  S
S839        H844   1.407       .  S
S841        H845   1.407       .  S
C847        C848   1.402       .  A
C847        C852   1.401       .  A
C847        H857   1.084       .  S
C848        C853   1.475       .  S
C848        C849   1.410       .  A
C849        C850   1.396       .  A
C849        S854   1.806       .  S
C850        C851   1.406       .  A
C850        H855   1.084       .  S
C851        C852   1.416       .  A
C852        S856   1.803       .  S
C853        C858   1.408       .  A
C853        C862   1.402       .  A
S854        H870   1.405       .  S
S856        H867   1.407       .  S
C858        C859   1.399       .  A
C858        S863   1.807       .  S
C859        C860   1.404       .  A
C859        H864   1.083       .  S
C860        C861   1.414       .  A
C861        C862   1.399       .  A
C861        S865   1.803       .  S
C862        H866   1.084       .  S
S863        H868   1.407       .  S
S865        H869   1.407       .  S
C871        C872   1.401       .  A
C871        C876   1.400       .  A
C871        H881   1.084       .  S
C872        C877   1.479       .  S
C872        C873   1.409       .  A
C873        C874   1.398       .  A
C873        S878   1.804       .  S
C874        C875   1.409       .  A
C874        H879   1.084       .  S
C875        C876   1.420       .  A
C876        S880   1.801       .  S
C877        C882   1.409       .  A
C877        C886   1.404       .  A
S878        H894   1.406       .  S
S880        H891   1.407       .  S
C882        C883   1.402       .  A
C882        S887   1.806       .  S
C883        C884   1.404       .  A
C883        H888   1.083       .  S
C884        C885   1.411       .  A
C885        C886   1.399       .  A
C885        S889   1.804       .  S
C886        H890   1.084       .  S
S887        H892   1.408       .  S
S889        H893   1.407       .  S
C895        C896   1.401       .  A
C895        C900   1.393       .  A
C895        H905   1.084       .  S
C896        C901   1.474       .  S
C896        C897   1.412       .  A
C897        C898   1.398       .  A
C897        S902   1.805       .  S
C898        C899   1.404       .  A
C898        H903   1.084       .  S
C899        C900   1.411       .  A
C900        S904   1.803       .  S
C901        C906   1.409       .  A
C901        C910   1.397       .  A
S902        H918   1.406       .  S
S904        H915   1.407       .  S
C906        C907   1.402       .  A
C906        S911   1.808       .  S
C907        C908   1.407       .  A
C907        H912   1.083       .  S
C908        C909   1.417       .  A
C909        C910   1.394       .  A
C909        S913   1.798       .  S
C910        H914   1.084       .  S
S911        H916   1.406       .  S
S913        H917   1.406       .  S
C919        C920   1.401       .  A
C919        C924   1.397       .  A
C919        H929   1.084       .  S
C920        C925   1.474       .  S
C920        C921   1.411       .  A
C921        C922   1.398       .  A
C921        S926   1.805       .  S
C922        C923   1.404       .  A
C922        H927   1.084       .  S
C923        C924   1.413       .  A
C924        S928   1.803       .  S
C925        C930   1.405       .  A
C925        C934   1.403       .  A
S926        H942   1.405       .  S
S928        H939   1.406       .  S
C930        C931   1.398       .  A
C930        S935   1.808       .  S
C931        C932   1.407       .  A
C931        H936   1.083       .  S
C932        C933   1.415       .  A
C933        C934   1.402       .  A
C933        S937   1.803       .  S
C934        H938   1.084       .  S
S935        H940   1.407       .  S
S937        H941   1.406       .  S
C943        C944   1.403       .  A
C943        C948   1.402       .  A
C943        H953   1.084       .  S
C944        C949   1.474       .  S
C944        C945   1.410       .  A
C945        C946   1.395       .  A
C945        S950   1.807       .  S
C946        C947   1.406       .  A
C946        H951   1.084       .  S
C947        C948   1.417       .  A
C948        S952   1.804       .  S
C949        C954   1.407       .  A
C949        C958   1.399       .  A
S950        H966   1.403       .  S
S952        H963   1.408       .  S
C954        C955   1.402       .  A
C954        S959   1.806       .  S
C955        C956   1.408       .  A
C955        H960   1.083       .  S
C956        C957   1.417       .  A
C957        C958   1.397       .  A
C957        S961   1.802       .  S
C958        H962   1.084       .  S
S959        H964   1.407       .  S
S961        H965   1.407       .  S
C967        C968   1.403       .  A
C967        C972   1.398       .  A
C967        H977   1.084       .  S
C968        C973   1.481       .  S
C968        C969   1.412       .  A
C969        C970   1.400       .  A
C969        S974   1.805       .  S
C970        C971   1.406       .  A
C970        H975   1.084       .  S
C971        C972   1.413       .  A
C972        S976   1.803       .  S
C973        C978   1.409       .  A
C973        C982   1.400       .  A
S974        H990   1.406       .  S
S976        H987   1.407       .  S
C978        C979   1.403       .  A
C978        S983   1.807       .  S
C979        C980   1.407       .  A
C979        H984   1.083       .  S
C980        C981   1.420       .  A
C981        C982   1.398       .  A
C981        S985   1.800       .  S
C982        H986   1.084       .  S
S983        H988   1.407       .  S
S985        H989   1.407       .  S
C991        C992   1.401       .  A
C991        C996   1.397       .  A
C991       H1001   1.084       .  S
C992        C997   1.479       .  S
C992        C993   1.411       .  A
C993        C994   1.400       .  A
C993        S998   1.804       .  S
C994        C995   1.407       .  A
C994        H999   1.084       .  S
C995        C996   1.415       .  A
C996       S1000   1.801       .  S
C997       C1002   1.409       .  A
C997       C1006   1.402       .  A
S998       H1014   1.406       .  S
S1000      H1011   1.407       .  S
C1002      C1003   1.401       .  A
C1002      S1007   1.807       .  S
C1003      C1004   1.405       .  A
C1003      H1008   1.083       .  S
C1004      C1005   1.414       .  A
C1005      C1006   1.398       .  A
C1005      S1009   1.798       .  S
C1006      H1010   1.084       .  S
S1007      H1012   1.407       .  S
S1009      H1013   1.406       .  S
C1015      C1016   1.400       .  A
C1015      C1020   1.397       .  A
C1015      H1025   1.084       .  S
C1016      C1021   1.474       .  S
C1016      C1017   1.412       .  A
C1017      C1018   1.399       .  A
C1017      S1022   1.805       .  S
C1018      C1019   1.403       .  A
C1018      H1023   1.084       .  S
C1019      C1020   1.414       .  A
C1020      S1024   1.803       .  S
C1021      C1026   1.406       .  A
C1021      C1030   1.402       .  A
S1022      H1038   1.404       .  S
S1024      H1035   1.406       .  S
C1026      C1027   1.399       .  A
C1026      S1031   1.808       .  S
C1027      C1028   1.408       .  A
C1027      H1032   1.082       .  S
C1028      C1029   1.416       .  A
C1029      C1030   1.401       .  A
C1029      S1033   1.803       .  S
C1030      H1034   1.084       .  S
S1031      H1036   1.407       .  S
S1033      H1037   1.407       .  S
C1039      C1040   1.402       .  A
C1039      C1044   1.402       .  A
C1039      H1049   1.084       .  S
C1040      C1045   1.474       .  S
C1040      C1041   1.409       .  A
C1041      C1042   1.394       .  A
C1041      S1046   1.806       .  S
C1042      C1043   1.407       .  A
C1042      H1047   1.084       .  S
C1043      C1044   1.417       .  A
C1044      S1048   1.804       .  S
C1045      C1050   1.406       .  A
C1045      C1054   1.398       .  A
S1046      H1062   1.405       .  S
S1048      H1059   1.407       .  S
C1050      C1051   1.403       .  A
C1050      S1055   1.806       .  S
C1051      C1052   1.408       .  A
C1051      H1056   1.083       .  S
C1052      C1053   1.417       .  A
C1053      C1054   1.399       .  A
C1053      S1057   1.805       .  S
C1054      H1058   1.083       .  S
S1055      H1060   1.407       .  S
S1057      H1061   1.407       .  S
C1063      C1064   1.403       .  A
C1063      C1068   1.399       .  A
C1063      H1073   1.084       .  S
C1064      C1069   1.480       .  S
C1064      C1065   1.413       .  A
C1065      C1066   1.400       .  A
C1065      S1070   1.804       .  S
C1066      C1067   1.403       .  A
C1066      H1071   1.084       .  S
C1067      C1068   1.412       .  A
C1068      S1072   1.803       .  S
C1069      C1074   1.407       .  A
C1069      C1078   1.400       .  A
S1070      H1086   1.405       .  S
S1072      H1083   1.404       .  S
C1074      C1075   1.402       .  A
C1074      S1079   1.807       .  S
C1075      C1076   1.410       .  A
C1075      H1080   1.082       .  S
C1076      C1077   1.421       .  A
C1077      C1078   1.399       .  A
C1077      S1081   1.800       .  S
C1078      H1082   1.084       .  S
S1079      H1084   1.407       .  S
S1081      H1085   1.406       .  S
C1087      C1088   1.398       .  A
C1087      C1092   1.397       .  A
C1087      H1097   1.084       .  S
C1088      C1093   1.481       .  S
C1088      C1089   1.413       .  A
C1089      C1090   1.403       .  A
C1089      S1094   1.804       .  S
C1090      C1091   1.405       .  A
C1090      H1095   1.084       .  S
C1091      C1092   1.418       .  A
C1092      S1096   1.798       .  S
C1093      C1098   1.409       .  A
C1093      C1102   1.400       .  A
S1094      H1110   1.406       .  S
S1096      H1107   1.405       .  S
C1098      C1099   1.405       .  A
C1098      S1103   1.807       .  S
C1099      C1100   1.407       .  A
C1099      H1104   1.083       .  S
C1100      C1101   1.416       .  A
C1101      C1102   1.398       .  A
C1101      S1105   1.802       .  S
C1102      H1106   1.084       .  S
S1103      H1108   1.407       .  S
S1105      H1109   1.405       .  S
C1111      C1112   1.401       .  A
C1111      C1116   1.399       .  A
C1111      H1121   1.084       .  S
C1112      C1117   1.472       .  S
C1112      C1113   1.410       .  A
C1113      C1114   1.395       .  A
C1113      S1118   1.806       .  S
C1114      C1115   1.404       .  A
C1114      H1119   1.081       .  S
C1115      C1116   1.414       .  A
C1116      S1120   1.804       .  S
C1117      C1122   1.405       .  A
C1117      C1126   1.401       .  A
S1118      H1134   1.404       .  S
S1120      H1131   1.405       .  S
C1122      C1123   1.398       .  A
C1122      S1127   1.808       .  S
C1123      C1124   1.407       .  A
C1123      H1128   1.083       .  S
C1124      C1125   1.415       .  A
C1125      C1126   1.400       .  A
C1125      S1129   1.803       .  S
C1126      H1130   1.084       .  S
S1127      H1132   1.406       .  S
S1129      H1133   1.407       .  S
C1135      C1136   1.402       .  A
C1135      C1140   1.401       .  A
C1135      H1145   1.084       .  S
C1136      C1141   1.474       .  S
C1136      C1137   1.409       .  A
C1137      C1138   1.395       .  A
C1137      S1142   1.806       .  S
C1138      C1139   1.405       .  A
C1138      H1143   1.084       .  S
C1139      C1140   1.416       .  A
C1140      S1144   1.804       .  S
C1141      C1146   1.407       .  A
C1141      C1150   1.398       .  A
S1142      H1158   1.404       .  S
S1144      H1155   1.408       .  S
C1146      C1147   1.404       .  A
C1146      S1151   1.806       .  S
C1147      C1148   1.409       .  A
C1147      H1152   1.083       .  S
C1148      C1149   1.416       .  A
C1149      C1150   1.396       .  A
C1149      S1153   1.800       .  S
C1150      H1154   1.084       .  S
S1151      H1156   1.407       .  S
S1153      H1157   1.406       .  S
C1159      C1160   1.402       .  A
C1159      C1164   1.399       .  A
C1159      H1169   1.084       .  S
C1160      C1165   1.481       .  S
C1160      C1161   1.412       .  A
C1161      C1162   1.401       .  A
C1161      S1166   1.805       .  S
C1162      C1163   1.407       .  A
C1162      H1167   1.084       .  S
C1163      C1164   1.416       .  A
C1164      S1168   1.801       .  S
C1165      C1170   1.411       .  A
C1165      C1174   1.401       .  A
S1166      H1182   1.405       .  S
S1168      H1179   1.405       .  S
C1170      C1171   1.404       .  A
C1170      S1175   1.806       .  S
C1171      C1172   1.402       .  A
C1171      H1176   1.083       .  S
C1172      C1173   1.414       .  A
C1173      C1174   1.398       .  A
C1173      S1177   1.805       .  S
C1174      H1178   1.084       .  S
S1175      H1180   1.406       .  S
S1177      H1181   1.407       .  S
C1183      C1184   1.398       .  A
C1183      C1188   1.395       .  A
C1183      H1193   1.084       .  S
C1184      C1189   1.477       .  S
C1184      C1185   1.413       .  A
C1185      C1186   1.402       .  A
C1185      S1190   1.805       .  S
C1186      C1187   1.405       .  A
C1186      H1191   1.084       .  S
C1187      C1188   1.417       .  A
C1188      S1192   1.800       .  S
C1189      C1194   1.410       .  A
C1189      C1198   1.401       .  A
S1190      H1206   1.405       .  S
S1192      H1203   1.407       .  S
C1194      C1195   1.402       .  A
C1194      S1199   1.807       .  S
C1195      C1196   1.405       .  A
C1195      H1200   1.083       .  S
C1196      C1197   1.412       .  A
C1197      C1198   1.397       .  A
C1197      S1201   1.804       .  S
C1198      H1202   1.084       .  S
S1199      H1204   1.407       .  S
S1201      H1205   1.408       .  S
C1207      C1208   1.403       .  A
C1207      C1212   1.397       .  A
C1207      H1217   1.084       .  S
C1208      C1213   1.477       .  S
C1208      C1209   1.413       .  A
C1209      C1210   1.399       .  A
C1209      S1214   1.805       .  S
C1210      C1211   1.404       .  A
C1210      H1215   1.085       .  S
C1211      C1212   1.410       .  A
C1212      S1216   1.803       .  S
C1213      C1218   1.408       .  A
C1213      C1222   1.400       .  A
S1214      H1230   1.404       .  S
S1216      H1227   1.407       .  S
C1218      C1219   1.404       .  A
C1218      S1223   1.806       .  S
C1219      C1220   1.407       .  A
C1219      H1224   1.083       .  S
C1220      C1221   1.416       .  A
C1221      C1222   1.399       .  A
C1221      S1225   1.803       .  S
C1222      H1226   1.084       .  S
S1223      H1228   1.407       .  S
S1225      H1229   1.408       .  S
C1231      C1232   1.401       .  A
C1231      C1236   1.401       .  A
C1231      H1241   1.084       .  S
C1232      C1237   1.480       .  S
C1232      C1233   1.410       .  A
C1233      C1234   1.399       .  A
C1233      S1238   1.803       .  S
C1234      C1235   1.407       .  A
C1234      H1239   1.084       .  S
C1235      C1236   1.419       .  A
C1236      S1240   1.803       .  S
C1237      C1242   1.409       .  A
C1237      C1246   1.397       .  A
S1238      H1254   1.406       .  S
S1240      H1251   1.404       .  S
C1242      C1243   1.408       .  A
C1242      S1247   1.805       .  S
C1243      C1244   1.408       .  A
C1243      H1248   1.083       .  S
C1244      C1245   1.419       .  A
C1245      C1246   1.395       .  A
C1245      S1249   1.802       .  S
C1246      H1250   1.084       .  S
S1247      H1252   1.407       .  S
S1249      H1253   1.405       .  S
C1255      C1256   1.402       .  A
C1255      C1260   1.400       .  A
C1255      H1265   1.084       .  S
C1256      C1261   1.479       .  S
C1256      C1257   1.411       .  A
C1257      C1258   1.399       .  A
C1257      S1262   1.803       .  S
C1258      C1259   1.403       .  A
C1258      H1263   1.083       .  S
C1259      C1260   1.414       .  A
C1260      S1264   1.804       .  S
C1261      C1266   1.409       .  A
C1261      C1270   1.399       .  A
S1262      H1278   1.406       .  S
S1264      H1275   1.407       .  S
C1266      C1267   1.404       .  A
C1266      S1271   1.806       .  S
C1267      C1268   1.406       .  A
C1267      H1272   1.083       .  S
C1268      C1269   1.417       .  A
C1269      C1270   1.398       .  A
C1269      S1273   1.800       .  S
C1270      H1274   1.084       .  S
S1271      H1276   1.407       .  S
S1273      H1277   1.405       .  S
C1279      C1280   1.401       .  A
C1279      C1284   1.401       .  A
C1279      H1289   1.084       .  S
C1280      C1285   1.475       .  S
C1280      C1281   1.405       .  A
C1281      C1282   1.395       .  A
C1281      S1286   1.803       .  S
C1282      C1283   1.410       .  A
C1282      H1287   1.083       .  S
C1283      C1284   1.421       .  A
C1284      S1288   1.800       .  S
C1285      C1290   1.406       .  A
C1285      C1294   1.401       .  A
S1286      H1302   1.405       .  S
S1288      H1299   1.406       .  S
C1290      C1291   1.401       .  A
C1290      S1295   1.805       .  S
C1291      C1292   1.404       .  A
C1291      H1296   1.083       .  S
C1292      C1293   1.414       .  A
C1293      C1294   1.400       .  A
C1293      S1297   1.808       .  S
C1294      H1298   1.084       .  S
S1295      H1300   1.407       .  S
S1297      H1301   1.402       .  S
C1303      C1304   1.404       .  A
C1303      C1308   1.402       .  A
C1303      H1313   1.084       .  S
C1304      C1309   1.480       .  S
C1304      C1305   1.411       .  A
C1305      C1306   1.397       .  A
C1305      S1310   1.804       .  S
C1306      C1307   1.405       .  A
C1306      H1311   1.084       .  S
C1307      C1308   1.413       .  A
C1308      S1312   1.799       .  S
C1309      C1314   1.410       .  A
C1309      C1318   1.401       .  A
S1310      H1326   1.405       .  S
S1312      H1323   1.407       .  S
C1314      C1315   1.404       .  A
C1314      S1319   1.807       .  S
C1315      C1316   1.405       .  A
C1315      H1320   1.083       .  S
C1316      C1317   1.416       .  A
C1317      C1318   1.399       .  A
C1317      S1321   1.804       .  S
C1318      H1322   1.084       .  S
S1319      H1324   1.407       .  S
S1321      H1325   1.407       .  S
C1327      C1328   1.404       .  A
C1327      C1332   1.401       .  A
C1327      H1337   1.084       .  S
C1328      C1333   1.484       .  S
C1328      C1329   1.412       .  A
C1329      C1330   1.398       .  A
C1329      S1334   1.802       .  S
C1330      C1331   1.405       .  A
C1330      H1335   1.084       .  S
C1331      C1332   1.414       .  A
C1332      S1336   1.803       .  S
C1333      C1338   1.410       .  A
C1333      C1342   1.403       .  A
S1334      H1350   1.405       .  S
S1336      H1347   1.407       .  S
C1338      C1339   1.403       .  A
C1338      S1343   1.808       .  S
C1339      C1340   1.405       .  A
C1339      H1344   1.080       .  S
C1340      C1341   1.417       .  A
C1341      C1342   1.402       .  A
C1341      S1345   1.803       .  S
C1342      H1346   1.084       .  S
S1343      H1348   1.406       .  S
S1345      H1349   1.407       .  S
C1351      C1352   1.402       .  A
C1351      C1356   1.396       .  A
C1351      H1361   1.084       .  S
C1352      C1357   1.478       .  S
C1352      C1353   1.412       .  A
C1353      C1354   1.399       .  A
C1353      S1358   1.804       .  S
C1354      C1355   1.405       .  A
C1354      H1359   1.084       .  S
C1355      C1356   1.414       .  A
C1356      S1360   1.803       .  S
C1357      C1362   1.409       .  A
C1357      C1366   1.399       .  A
S1358      H1374   1.406       .  S
S1360      H1371   1.407       .  S
C1362      C1363   1.404       .  A
C1362      S1367   1.807       .  S
C1363      C1364   1.407       .  A
C1363      H1368   1.083       .  S
C1364      C1365   1.416       .  A
C1365      C1366   1.396       .  A
C1365      S1369   1.799       .  S
C1366      H1370   1.084       .  S
S1367      H1372   1.406       .  S
S1369      H1373   1.406       .  S
C1375      C1376   1.400       .  A
C1375      C1380   1.398       .  A
C1375      H1385   1.084       .  S
C1376      C1381   1.485       .  S
C1376      C1377   1.414       .  A
C1377      C1378   1.404       .  A
C1377      S1382   1.803       .  S
C1378      C1379   1.404       .  A
C1378      H1383   1.084       .  S
C1379      C1380   1.416       .  A
C1380      S1384   1.798       .  S
C1381      C1386   1.410       .  A
C1381      C1390   1.401       .  A
S1382      H1398   1.406       .  S
S1384      H1395   1.407       .  S
C1386      C1387   1.406       .  A
C1386      S1391   1.807       .  S
C1387      C1388   1.408       .  A
C1387      H1392   1.083       .  S
C1388      C1389   1.416       .  A
C1389      C1390   1.399       .  A
C1389      S1393   1.802       .  S
C1390      H1394   1.084       .  S
S1391      H1396   1.407       .  S
S1393      H1397   1.408       .  S
C1399      C1400   1.403       .  A
C1399      C1404   1.403       .  A
C1399      H1409   1.084       .  S
C1400      C1405   1.481       .  S
C1400      C1401   1.409       .  A
C1401      C1402   1.398       .  A
C1401      S1406   1.805       .  S
C1402      C1403   1.409       .  A
C1402      H1407   1.084       .  S
C1403      C1404   1.419       .  A
C1404      S1408   1.803       .  S
C1405      C1410   1.408       .  A
C1405      C1414   1.400       .  A
S1406      H1422   1.405       .  S
S1408      H1419   1.407       .  S
C1410      C1411   1.405       .  A
C1410      S1415   1.807       .  S
C1411      C1412   1.408       .  A
C1411      H1416   1.083       .  S
C1412      C1413   1.416       .  A
C1413      C1414   1.399       .  A
C1413      S1417   1.803       .  S
C1414      H1418   1.084       .  S
S1415      H1420   1.407       .  S
S1417      H1421   1.407       .  S
