geometry optimzed in LAMMPS
_audit_creation_date              2020-11-30 
_audit_creation_method            'lammps2cif' 
_symmetry_space_group_name_H-M    'P1' 
_symmetry_Int_Tables_number       1 
_symmetry_cell_setting            triclinic 
loop_ 
_symmetry_equiv_pos_as_xyz 
  x,y,z 
_cell_length_a                    48.23760328664151 
_cell_length_b                    48.881282131039036 
_cell_length_c                    24.91618554186598 
_cell_angle_alpha                 91.86459352697447 
_cell_angle_beta                  89.7572809025896 
_cell_angle_gamma                 122.7081054629684 
loop_ 
_atom_site_label 
_atom_site_type_symbol 
_atom_site_fract_x 
_atom_site_fract_y 
_atom_site_fract_z 
_atom_site_charge 
O1          O  0.45961111  0.02319079  0.06758336    -0.81970
O2          O  0.99553986  0.43529744  0.01911428    -0.81990
O3          O  0.44527526  0.46446843  0.90614556    -0.82000
O4          O  0.03845340  0.00287394  0.10395184    -0.81940
O5          O  0.45042126  0.43365059  0.96014664    -0.82070
O6          O  0.98529740  0.98555357  0.09962363    -0.81990
O7          O  0.04788500  0.46345563  0.03096285    -0.81970
O8          O  0.44469905  0.48553371  0.00440085    -0.82010
C9          C  0.43699834  0.00127300  0.03618421     1.07720
C10         C  0.02110837  0.43558670  0.02632973     1.07600
C11         C  0.43384101  0.43651828  0.92505495     1.07740
C12         C  0.01022234  0.99047685  0.12622410     1.07620
O13         O  0.03269096  0.05325468  0.08326950    -0.81970
O14         O  0.49754300  0.46705341  0.87414191    -0.82050
O15         O  0.46616432  0.03193971  0.92763479    -0.81980
O16         O  0.06451886  0.01421764  0.95057718    -0.81960
O17         O  0.04394295  0.46383564  0.93195583    -0.82020
O18         O  0.50604548  0.05071093  0.98800550    -0.81980
O19         O  0.06410403  0.05309417  0.02158454    -0.81940
O20         O  0.51260470  0.51816507  0.88936042    -0.82010
Co21       Co  0.99317983  0.01508183  0.04108661     1.51530
Co22       Co  0.49664615  0.45123801  0.94852940     1.51690
Co23       Co  0.48134338  0.50419673  0.94950353     1.51570
Co24       Co  0.05230751  0.00827085  0.02545121     1.51470
O25         O  0.50807455  0.99172591  0.99182818    -1.43910
C26         C  0.06088671  0.06723147  0.06140353     1.07650
C27         C  0.50941303  0.49575087  0.85752619     1.07740
C28         C  0.48729424  0.05522151  0.95872886     1.07670
C29         C  0.06913299  0.49268299  0.93582860     1.07650
O30         O  0.02455277  0.97755184  0.38590648    -0.81970
O31         O  0.49751519  0.05633139  0.53918612    -0.81990
O32         O  0.42625267  0.45865171  0.45372462    -0.82000
O33         O  0.03153353  0.05508069  0.45079273    -0.81940
O34         O  0.45432523  0.50948647  0.47276816    -0.82070
O35         O  0.06333935  0.03831876  0.42626293    -0.81990
O36         O  0.05134598  0.08660536  0.54874368    -0.81970
O37         O  0.47835471  0.47593876  0.38377817    -0.82010
C38         C  0.00253940  0.97835918  0.35933651     1.07720
C39         C  0.02442577  0.08462174  0.54277270     1.07600
C40         C  0.42705521  0.48448078  0.46194267     1.07740
C41         C  0.05545431  0.05924771  0.42373656     1.07620
O42         O  0.06263162  0.00941036  0.53220501    -0.81970
O43         O  0.43466742  0.45953445  0.55502953    -0.82050
O44         O  0.48609417  0.42801692  0.43824451    -0.81980
O45         O  0.03833417  0.03247626  0.60003749    -0.81960
O46         O  0.48575376  0.50374282  0.61381397    -0.82020
O47         O  0.02718135  0.45349975  0.49354312    -0.81980
O48         O  0.08231406  0.05823917  0.51806455    -0.81940
O49         O  0.44956347  0.42840063  0.51786419    -0.82010
Co50       Co  0.04171716  0.99455222  0.46201289     1.51530
Co51       Co  0.47150382  0.50619994  0.54122949     1.51690
Co52       Co  0.46465181  0.45319756  0.45220450     1.51570
Co53       Co  0.03341833  0.04257266  0.52441392     1.51470
O54         O  0.00278152  0.99473346  0.49733590    -1.43910
C55         C  0.08779849  0.03660601  0.52764116     1.07650
C56         C  0.43088625  0.43180473  0.54858498     1.07740
C57         C  0.00528203  0.42751091  0.47182103     1.07670
C58         C  0.51463694  0.51611804  0.63097127     1.07650
O59         O  0.05350388  0.24847696  0.96417025    -0.81970
O60         O  0.47382094  0.28964489  0.96650258    -0.81750
O61         O  0.50996879  0.24924917  0.90888461    -0.82000
O62         O  0.05306383  0.32917177  0.07413532    -0.81940
O63         O  0.45920495  0.23610188  0.90389427    -0.82070
O64         O  0.06540999  0.29408895  0.04367826    -0.81990
O65         O  0.52476482  0.30535850  0.97730665    -0.81970
O66         O  0.02115505  0.20074032  0.92271157    -0.82010
C67         C  0.05027928  0.22483456  0.93463642     1.07720
C68         C  0.50403997  0.31222996  0.96558398     1.07600
C69         C  0.48603134  0.24453631  0.88128910     1.07740
C70         C  0.07396767  0.32336175  0.05430971     1.07620
O71         O  0.02741008  0.24127041  0.11800535    -0.81970
O72         O  0.42572754  0.19589887  0.99185883    -0.82050
O73         O  0.48051921  0.18041920  0.01278710    -0.81980
O74         O  0.48025073  0.29750045  0.06664026    -0.81960
O75         O  0.44007278  0.24701784  0.05413719    -0.82020
O76         O  0.02835753  0.19984920  0.04198055    -0.81980
O77         O  0.00717807  0.27186993  0.12275378    -0.81940
O78         O  0.45246080  0.18378268  0.93446301    -0.82010
Co79       Co  0.03747844  0.24530923  0.04030431     1.51530
Co80       Co  0.45218405  0.24198030  0.98123348     1.51690
Co81       Co  0.49788727  0.21672997  0.96393373     1.51570
Co82       Co  0.01616170  0.28706006  0.04919514     1.51470
O83         O  0.49089596  0.24166678  0.01822802    -1.43910
C84         C  0.01447410  0.25372906  0.14473913     1.07650
C85         C  0.42860106  0.17499922  0.96645421     1.07740
C86         C  0.00137612  0.17516719  0.02791900     1.07670
C87         C  0.44948379  0.27537142  0.07020783     1.07650
O88         O  0.02588009  0.21597829  0.58062739    -0.81970
O89         O  0.51079287  0.30340025  0.49652609    -0.81990
O90         O  0.07185673  0.28927537  0.46310217    -0.82000
O91         O  0.47966242  0.25145963  0.62880896    -0.81940
O92         O  0.03604086  0.30424908  0.47731974    -0.82070
O93         O  0.47028129  0.20165838  0.62846866    -0.81990
O94         O  0.47234502  0.28937735  0.55805845    -0.81970
O95         O  0.04930954  0.26783320  0.56352347    -0.82010
C96         C  0.05021800  0.24522992  0.58577710     1.07720
C97         C  0.49474101  0.31041936  0.52916761     1.07600
C98         C  0.06643671  0.31172122  0.47237915     1.07740
C99         C  0.47758822  0.22822601  0.65312724     1.07620
O100        O  0.43521973  0.17125690  0.52384402    -0.81970
O101        O  0.00055275  0.27823858  0.38964422    -0.82050
O102        O  0.04182445  0.22286756  0.48210685    -0.81980
O103        O  0.42125766  0.23101977  0.50646751    -0.81960
O104        O  0.45372473  0.26750975  0.45050943    -0.82020
O105        O  0.49018240  0.18754240  0.47853310    -0.81980
O106        O  0.42175079  0.19548024  0.58237952    -0.81940
O107        O  0.01491763  0.24389502  0.40826029    -0.82010
Co108      Co  0.47994642  0.19529314  0.55107033     1.51530
Co109      Co  0.99095259  0.25999448  0.45762772     1.51690
Co110      Co  0.03009315  0.25711723  0.48947177     1.51570
Co111      Co  0.45174439  0.24219959  0.56679718     1.51470
O112        O  0.48481614  0.23624974  0.52418794    -1.43910
C113        C  0.41383133  0.17506252  0.54404070     1.07650
C114        C  0.00792212  0.25837867  0.37333746     1.07740
C115        C  0.01868259  0.19330983  0.47674027     1.07670
C116        C  0.42526778  0.24930937  0.46930678     1.07650
O117        O  0.21506179  0.04571680  0.03041692    -0.81970
O118        O  0.24461768  0.44697467  0.02456516    -0.81990
O119        O  0.18646785  0.44839083  0.96949320    -0.82000
O120        O  0.24247587  0.99014223  0.09305606    -0.81940
O121        O  0.21599982  0.43124123  0.93509885    -0.82070
O122        O  0.26018497  0.04202199  0.09916596    -0.81990
O123        O  0.28778508  0.47272965  0.07676726    -0.81970
O124        O  0.19309109  0.49497851  0.02142816    -0.82010
C125        C  0.18917794  0.01769532  0.02684080     1.07720
C126        C  0.26407047  0.44578308  0.05746292     1.07600
C127        C  0.19062680  0.42585667  0.96016191     1.07740
C128        C  0.24947801  0.01489524  0.12129883     1.07620
O129        O  0.30620737  0.06862001  0.00937648    -0.81970
O130        O  0.26586003  0.49055569  0.88221475    -0.82050
O131        O  0.21273446  0.03543322  0.92455917    -0.81980
O132        O  0.30805918  0.00478912  0.98191921    -0.81960
O133        O  0.28790512  0.45720246  0.94414447    -0.82020
O134        O  0.26388298  0.06988319  0.94852641    -0.81980
O135        O  0.31085969  0.03872842  0.06679914    -0.81940
O136        O  0.21727431  0.48565306  0.87295875    -0.82010
Co137      Co  0.26079600  0.05333882  0.02039092     1.51530
Co138      Co  0.25836364  0.47358055  0.95601623     1.51690
Co139      Co  0.20477550  0.49167847  0.94830966     1.51570
Co140      Co  0.27305898  0.99649871  0.03578133     1.51470
O141        O  0.24878601  0.50848208  0.98456535    -1.43910
C142        C  0.32382368  0.06257963  0.03623598     1.07650
C143        C  0.24325131  0.48864398  0.85270924     1.07740
C144        C  0.23810824  0.06431135  0.92569578     1.07670
C145        C  0.31253912  0.48235311  0.96730360     1.07650
O146        O  0.25070201  0.05195233  0.51651050    -0.81970
O147        O  0.28402098  0.45663827  0.52357343    -0.81990
O148        O  0.25358297  0.51038285  0.59445168    -0.82000
O149        O  0.31122596  0.05596078  0.47624204    -0.81940
O150        O  0.23772821  0.45875925  0.59004090    -0.82070
O151        O  0.27950398  0.06155745  0.42265567    -0.81990
O152        O  0.31290271  0.00923029  0.52042633    -0.81970
O153        O  0.20962900  0.02884534  0.57224696    -0.82010
C154        C  0.23096837  0.05426448  0.54809925     1.07720
C155        C  0.31184006  0.48337092  0.52608983     1.07600
C156        C  0.24760748  0.48521367  0.61771388     1.07740
C157        C  0.30442350  0.07396964  0.45324711     1.07620
O158        O  0.23141707  0.99815707  0.38033879    -0.81970
O159        O  0.19464051  0.43714606  0.49131369    -0.82050
O160        O  0.19123175  0.49650970  0.47466596    -0.81980
O161        O  0.29227191  0.47051652  0.42108148    -0.81960
O162        O  0.23963306  0.43657414  0.43325001    -0.82020
O163        O  0.21395568  0.03936085  0.42510429    -0.81980
O164        O  0.28467938  0.01697805  0.37418396    -0.81940
O165        O  0.18721326  0.46123516  0.55894807    -0.82010
Co166      Co  0.23902662  0.02171037  0.44919734     1.51530
Co167      Co  0.23910236  0.44946113  0.50861490     1.51690
Co168      Co  0.22525401  0.50438552  0.53324855     1.51570
Co169      Co  0.29812757  0.01281105  0.44985422     1.51470
O170        O  0.25326048  0.49428457  0.48382989    -1.43910
C171        C  0.25650824  0.00656587  0.35207826     1.07650
C172        C  0.17634784  0.43674718  0.52703548     1.07740
C173        C  0.18982054  0.01932483  0.45317589     1.07670
C174        C  0.26646892  0.44223348  0.41466918     1.07650
O175        O  0.18835016  0.20712051  0.02572432    -0.81970
O176        O  0.24450524  0.30179249  0.05899061    -0.81990
O177        O  0.26538174  0.22656464  0.11242842    -0.82000
O178        O  0.19769834  0.25702247  0.95883983    -0.81940
O179        O  0.24913889  0.26071913  0.11765865    -0.82070
O180        O  0.17494938  0.20822566  0.92002665    -0.81990
O181        O  0.25644164  0.31794423  0.97805478    -0.81970
O182        O  0.21363364  0.18231785  0.04554587    -0.82010
C183        C  0.18778921  0.18373132  0.04702978     1.07720
C184        C  0.24971799  0.32236361  0.02514829     1.07600
C185        C  0.25514205  0.24174056  0.13945345     1.07740
C186        C  0.17260403  0.23189041  0.93469490     1.07620
O187        O  0.23866870  0.24086704  0.88671075    -0.81970
O188        O  0.31645194  0.28554002  0.08264575    -0.82050
O189        O  0.26276418  0.20453416  0.95690935    -0.81980
O190        O  0.29549300  0.29581345  0.93571723    -0.81960
O191        O  0.30938171  0.32415390  0.01272580    -0.82020
O192        O  0.21095802  0.18206688  0.94259834    -0.81980
O193        O  0.24252679  0.28791359  0.88290903    -0.81940
O194        O  0.31073198  0.24753907  0.02512909    -0.82010
Co195      Co  0.21470352  0.22512508  0.96035381     1.51530
Co196      Co  0.27801278  0.29048768  0.06469460     1.51690
Co197      Co  0.26264091  0.21734114  0.03265570     1.51570
Co198      Co  0.24791941  0.27489295  0.94959315     1.51470
O199        O  0.25446906  0.25239954  0.00996162    -1.43910
C200        C  0.24269595  0.26482824  0.85913816     1.07650
C201        C  0.32823646  0.27066852  0.05851669     1.07740
C202        C  0.23631147  0.18065193  0.93821976     1.07670
C203        C  0.31522199  0.32111286  0.96365142     1.07650
O204        O  0.19476083  0.19219116  0.43882033    -0.81970
O205        O  0.23337877  0.30845527  0.46187704    -0.81990
O206        O  0.17744909  0.23287705  0.58673034    -0.82000
O207        O  0.25414074  0.26698603  0.39378219    -0.81940
O208        O  0.18449989  0.26785929  0.52754974    -0.82070
O209        O  0.25087167  0.22176305  0.39440531    -0.81990
O210        O  0.28384787  0.32175583  0.44715872    -0.81970
O211        O  0.16543570  0.18798472  0.50824834    -0.82010
C212        C  0.16717371  0.18009553  0.46032816     1.07720
C213        C  0.26083403  0.32683124  0.44014178     1.07600
C214        C  0.16834698  0.25005316  0.56548870     1.07740
C215        C  0.25151570  0.24329831  0.36816467     1.07620
O216        O  0.28936928  0.24246325  0.48867506    -0.81970
O217        O  0.23309040  0.28176918  0.61101811    -0.82050
O218        O  0.22016304  0.18378876  0.54607546    -0.81980
O219        O  0.29718284  0.29205268  0.53754155    -0.81960
O220        O  0.28093736  0.32519810  0.54702367    -0.82020
O221        O  0.24033778  0.18067040  0.46780387    -0.81980
O222        O  0.31462687  0.28541703  0.43676590    -0.81940
O223        O  0.24165326  0.24193899  0.60453876    -0.82010
Co224      Co  0.23963971  0.21845304  0.47073792     1.51530
Co225      Co  0.23249934  0.29279347  0.53401695     1.51690
Co226      Co  0.20471924  0.21621357  0.55501694     1.51570
Co227      Co  0.27433743  0.27720551  0.46613745     1.51470
O228        O  0.23094850  0.25318905  0.49771617    -1.43910
C229        C  0.31429544  0.26218282  0.45926001     1.07650
C230        C  0.24246964  0.26450188  0.63152721     1.07740
C231        C  0.23074453  0.17013639  0.51417859     1.07670
C232        C  0.30301592  0.31920778  0.55393387     1.07650
C233        C  0.24662792  0.24093614  0.77168223    -0.15180
C234        C  0.24848517  0.26670443  0.80128335     0.06970
C235        C  0.25372778  0.29403172  0.77462830    -0.15180
C236        C  0.25418929  0.29436171  0.71899320    -0.15180
C237        C  0.24968677  0.26751528  0.68915441     0.06970
C238        C  0.24739099  0.24140049  0.71577812    -0.15180
H239        H  0.24298539  0.21983209  0.79146323     0.10950
H240        H  0.25588877  0.31459435  0.79657577     0.10950
H241        H  0.25640081  0.31489917  0.69933662     0.10950
H242        H  0.24399270  0.22039606  0.69348246     0.10950
C243        C  0.25693314  0.26767935  0.22644462    -0.15180
C244        C  0.25295900  0.24051784  0.19777124     0.06970
C245        C  0.24776375  0.21367972  0.22532772    -0.15180
C246        C  0.24644917  0.21411608  0.28128610    -0.15180
C247        C  0.25066607  0.24151652  0.30967347     0.06970
C248        C  0.25581923  0.26818985  0.28184488    -0.15180
H249        H  0.26154814  0.28898079  0.20603557     0.10950
H250        H  0.24466522  0.19259698  0.20375608     0.10950
H251        H  0.24252464  0.19327195  0.30232876     0.10950
H252        H  0.25952030  0.28969214  0.30285689     0.10950
C253        C  0.23902933  0.38372398  0.38724006    -0.15180
C254        C  0.26841707  0.41394088  0.39729441     0.06970
C255        C  0.29757550  0.41452537  0.40596111    -0.15180
C256        C  0.29620130  0.38548011  0.41440471    -0.15180
C257        C  0.26570583  0.35555609  0.41252769     0.06970
C258        C  0.23772490  0.35487183  0.39460944    -0.15180
H259        H  0.21623877  0.38235572  0.37939142     0.10950
H260        H  0.32077155  0.43749301  0.41207881     0.10950
H261        H  0.31826963  0.38677974  0.42758176     0.10950
H262        H  0.21398974  0.33211957  0.39157408     0.10950
C263        C  0.25269219  0.10782734  0.50995713    -0.15180
C264        C  0.23257567  0.08551574  0.54866538     0.06970
C265        C  0.21237221  0.09228790  0.57962842    -0.15180
C266        C  0.21238994  0.12075752  0.57083962    -0.15180
C267        C  0.23243749  0.14231508  0.53083304     0.06970
C268        C  0.25310579  0.13576264  0.50189820    -0.15180
H269        H  0.26690796  0.10295017  0.48255219     0.10950
H270        H  0.19584682  0.07518839  0.60870098     0.10950
H271        H  0.19586298  0.12515305  0.59339967     0.10950
H272        H  0.26874953  0.15156842  0.47069444     0.10950
C273        C  0.23702572  0.00614401  0.76196353    -0.15180
C274        C  0.24641662  0.48889281  0.79281576     0.06970
C275        C  0.25715050  0.47055573  0.76547831    -0.15180
C276        C  0.25741191  0.46879608  0.70870046    -0.15180
C277        C  0.24813059  0.48635374  0.67803823     0.06970
C278        C  0.23842375  0.00535776  0.70565613    -0.15180
H279        H  0.22860797  0.02041713  0.78157558     0.10950
H280        H  0.26436875  0.45674742  0.78805267     0.10950
H281        H  0.26509579  0.45398847  0.68885324     0.10950
H282        H  0.23089443  0.01906996  0.68351295     0.10950
C283        C  0.26656583  0.99873776  0.20237424    -0.15180
C284        C  0.25030795  0.01272430  0.18049698     0.06970
C285        C  0.23568867  0.02423164  0.21548757    -0.15180
C286        C  0.23683594  0.02118765  0.27127089    -0.15180
C287        C  0.25366679  0.00771503  0.29303198     0.06970
C288        C  0.26877114  0.99682041  0.25801705    -0.15180
H289        H  0.27796694  0.48958637  0.17636423     0.10950
H290        H  0.22306505  0.03510272  0.19970399     0.10950
H291        H  0.22529442  0.03012737  0.29760406     0.10950
H292        H  0.28170044  0.48624408  0.27376807     0.10950
C293        C  0.28707171  0.41086151  0.06792196    -0.15180
C294        C  0.25963601  0.41364629  0.06534964     0.06970
C295        C  0.22832002  0.38515838  0.05539514    -0.15180
C296        C  0.22477711  0.35515611  0.04391551    -0.15180
C297        C  0.25254988  0.35304840  0.04211008     0.06970
C298        C  0.28359440  0.38085547  0.05581011    -0.15180
H299        H  0.31145753  0.43226822  0.07515622     0.10950
H300        H  0.20669736  0.38645606  0.05348217     0.10950
H301        H  0.20058668  0.33395549  0.03422652     0.10950
H302        H  0.30533553  0.37959865  0.05521311     0.10950
C303        C  0.20674595  0.09151231  0.90724340    -0.15180
C304        C  0.23676033  0.09305775  0.91035329     0.06970
C305        C  0.26610850  0.12404418  0.91112627    -0.15180
C306        C  0.26552299  0.15235765  0.91518619    -0.15180
C307        C  0.23557840  0.15082137  0.91915389     0.06970
C308        C  0.20608067  0.12006022  0.91251698    -0.15180
H309        H  0.18373643  0.06817466  0.90471082     0.10950
H310        H  0.28978058  0.12647727  0.91269508     0.10950
H311        H  0.28882104  0.17551489  0.91911825     0.10950
H312        H  0.18253389  0.11785814  0.91477963     0.10950
C313        C  0.35338342  0.14083716  0.54923180    -0.15180
C314        C  0.38147131  0.15799127  0.51850038     0.06970
C315        C  0.37934286  0.15392257  0.46217250    -0.15180
C316        C  0.35033926  0.12910021  0.43746719    -0.15180
C317        C  0.32385861  0.10818042  0.46936130     0.06970
C318        C  0.32466657  0.11562857  0.52470879    -0.15180
H319        H  0.35477770  0.14391708  0.59258764     0.10950
H320        H  0.40107429  0.16776130  0.43795297     0.10950
H321        H  0.35034018  0.12337862  0.39510042     0.10950
H322        H  0.30483750  0.09920369  0.55044209     0.10950
C323        C  0.12158894  0.34867780  0.51352314    -0.15180
C324        C  0.09409146  0.34486111  0.48726511     0.06970
C325        C  0.09207224  0.37220330  0.48142463    -0.15180
C326        C  0.11723094  0.40287246  0.50204022    -0.15180
C327        C  0.14433579  0.40629467  0.52959483     0.06970
C328        C  0.14569527  0.37865184  0.53627308    -0.15180
H329        H  0.12481545  0.32854749  0.51547953     0.10950
H330        H  0.07161813  0.36996527  0.45939105     0.10950
H331        H  0.11672309  0.42412907  0.49305049     0.10950
H332        H  0.16740446  0.38101516  0.55405624     0.10950
C333        C  0.36524414  0.22562491  0.47188714    -0.15180
C334        C  0.39623681  0.25024323  0.45347548     0.06970
C335        C  0.39912725  0.27743298  0.43007733    -0.15180
C336        C  0.37237545  0.28146679  0.43089234    -0.15180
C337        C  0.34242246  0.25808593  0.45436278     0.06970
C338        C  0.33886364  0.22959878  0.47270944    -0.15180
H339        H  0.36177453  0.20390113  0.48896290     0.10950
H340        H  0.42249580  0.29647119  0.41452541     0.10950
H341        H  0.37549057  0.30332272  0.41505514     0.10950
H342        H  0.31585843  0.21060953  0.48933371     0.10950
C343        C  0.11149843  0.27956416  0.59344858    -0.15180
C344        C  0.08204974  0.25037762  0.60419520     0.06970
C345        C  0.08360494  0.22318001  0.61615721    -0.15180
C346        C  0.11258580  0.22362146  0.60749875    -0.15180
C347        C  0.14024111  0.25118215  0.58660041     0.06970
C348        C  0.14015060  0.27980292  0.58300483    -0.15180
H349        H  0.11148770  0.30136240  0.58851968     0.10950
H350        H  0.06151855  0.20036309  0.62620080     0.10950
H351        H  0.11234815  0.20155040  0.61230830     0.10950
H352        H  0.16181137  0.30200182  0.56972166     0.10950
C353        C  0.00030349  0.22486584  0.74067728    -0.15180
C354        C  0.48025371  0.23181643  0.71149394     0.06970
C355        C  0.46411454  0.24504137  0.73792595    -0.15180
C356        C  0.46720356  0.25052504  0.79318370    -0.15180
C357        C  0.48710190  0.24356447  0.82270896     0.06970
C358        C  0.00403721  0.23110403  0.79621038    -0.15180
H359        H  0.01328436  0.21514645  0.72053704     0.10950
H360        H  0.44866568  0.25071896  0.71572003     0.10950
H361        H  0.45369697  0.25976600  0.81300430     0.10950
H362        H  0.01905786  0.22502897  0.81866673     0.10950
C363        C  0.02674348  0.23972038  0.23413186    -0.15180
C364        C  0.00879357  0.24855285  0.20264990     0.06970
C365        C  0.48765242  0.25616365  0.22782937    -0.15180
C366        C  0.48638626  0.25753844  0.28336548    -0.15180
C367        C  0.00616205  0.25127050  0.31520310     0.06970
C368        C  0.02540064  0.24104890  0.29038664    -0.15180
H369        H  0.04314917  0.23364740  0.21548196     0.10950
H370        H  0.47306090  0.26247138  0.20460308     0.10950
H371        H  0.47070808  0.26473065  0.30147742     0.10950
H372        H  0.04066458  0.23590465  0.31427107     0.10950
C373        C  0.40307088  0.13833451  0.04138967    -0.15180
C374        C  0.40850531  0.14195464  0.98561125     0.06970
C375        C  0.39243349  0.11475812  0.95080327    -0.15180
C376        C  0.36766319  0.08516641  0.97091432    -0.15180
C377        C  0.35879818  0.08296098  0.02551716     0.06970
C378        C  0.37833921  0.10886608  0.06132232    -0.15180
H379        H  0.41624152  0.15909129  0.06914899     0.10950
H380        H  0.39677453  0.11702393  0.90802166     0.10950
H381        H  0.35238595  0.06525553  0.94261052     0.10950
H382        H  0.37163346  0.10778447  0.10311318     0.10950
C383        C  0.12695162  0.37810620  0.06205669    -0.15180
C384        C  0.10667304  0.34856044  0.03444402     0.06970
C385        C  0.11774717  0.34219281  0.98559812    -0.15180
C386        C  0.14745992  0.36593418  0.96258353    -0.15180
C387        C  0.16687025  0.39622758  0.98879100     0.06970
C388        C  0.15706895  0.40132165  0.04011138    -0.15180
H389        H  0.11936130  0.38341952  0.09986470     0.10950
H390        H  0.10227347  0.31942146  0.96338126     0.10950
H391        H  0.15380266  0.36151129  0.92294165     0.10950
H392        H  0.17171720  0.42464687  0.06142131     0.10950
C393        C  0.42148885  0.30692295  0.06249250    -0.15180
C394        C  0.42248697  0.28100640  0.08353854     0.06970
C395        C  0.39291548  0.25469961  0.10352788    -0.15180
C396        C  0.36296726  0.25272077  0.09805095    -0.15180
C397        C  0.36141560  0.27722973  0.07328876     0.06970
C398        C  0.39121161  0.30506027  0.05737857    -0.15180
H399        H  0.44348052  0.32728791  0.04602606     0.10950
H400        H  0.39245433  0.23410041  0.11952274     0.10950
H401        H  0.34052505  0.23100353  0.11068673     0.10950
H402        H  0.39079638  0.32429418  0.03776305     0.10950
C403        C  0.08134486  0.19801893  0.91344793    -0.15180
C404        C  0.08082290  0.22635311  0.91983847     0.06970
C405        C  0.11100760  0.25659183  0.92505120    -0.15180
C406        C  0.14076896  0.25836177  0.92888548    -0.15180
C407        C  0.14119314  0.22994945  0.92654525     0.06970
C408        C  0.11135210  0.19980688  0.91672314    -0.15180
H409        H  0.05854941  0.17443063  0.90967230     0.10950
H410        H  0.11150808  0.27893046  0.92952767     0.10950
H411        H  0.16337448  0.28194248  0.93513470     0.10950
H412        H  0.11101949  0.17747689  0.91415206     0.10950
C413        C  0.39558163  0.37129673  0.55650856    -0.15180
C414        C  0.40097983  0.40217819  0.56858167     0.06970
C415        C  0.37471496  0.40389145  0.58894745    -0.15180
C416        C  0.34284959  0.37594186  0.58956528    -0.15180
C417        C  0.33680412  0.34572551  0.57071442     0.06970
C418        C  0.36380136  0.34331672  0.55765027    -0.15180
H419        H  0.41536008  0.36899381  0.54158318     0.10950
H420        H  0.37806247  0.42718127  0.59929391     0.10950
H421        H  0.32259106  0.37849601  0.60050390     0.10950
H422        H  0.36005794  0.32037422  0.54334469     0.10950
C423        C  0.11142787  0.09935948  0.38991928    -0.15180
C424        C  0.08047433  0.09254827  0.40640443     0.06970
C425        C  0.07810435  0.11872990  0.42500522    -0.15180
C426        C  0.10661190  0.14890212  0.43892357    -0.15180
C427        C  0.13767351  0.15376690  0.43104898     0.06970
C428        C  0.13985758  0.12983039  0.40210732    -0.15180
H429        H  0.11419540  0.08004625  0.37429737     0.10950
H430        H  0.05442749  0.11469525  0.43525784     0.10950
H431        H  0.10452714  0.16762322  0.45904753     0.10950
H432        H  0.16364809  0.13319932  0.39465486     0.10950
C433        C  0.36928276  0.95497267  0.49499497    -0.15180
C434        C  0.39681586  0.48355007  0.47572302     0.06970
C435        C  0.39728985  0.51243729  0.47851724    -0.15180
C436        C  0.37054545  0.51270426  0.49912844    -0.15180
C437        C  0.34255851  0.48402847  0.51751273     0.06970
C438        C  0.34251155  0.95526298  0.51619894    -0.15180
H439        H  0.36856338  0.93245108  0.49425968     0.10950
H440        H  0.41844822  0.53489775  0.46482768     0.10950
H441        H  0.37137315  0.53528491  0.49868403     0.10950
H442        H  0.32119664  0.93271273  0.52923857     0.10950
C443        C  0.14149431  0.05931091  0.47930425    -0.15180
C444        C  0.11858370  0.03809996  0.51655420     0.06970
C445        C  0.12001918  0.01164791  0.53271333    -0.15180
C446        C  0.14182364  0.00485019  0.50933681    -0.15180
C447        C  0.16397225  0.02503736  0.47050037     0.06970
C448        C  0.16428528  0.05292862  0.45660994    -0.15180
H449        H  0.14080965  0.07978863  0.46609539     0.10950
H450        H  0.10264725  0.99479283  0.56133093     0.10950
H451        H  0.14149857  0.98377258  0.52247558     0.10950
H452        H  0.18200877  0.06965805  0.42833049     0.10950
C453        C  0.02997901  0.39900434  0.51049374    -0.15180
C454        C  0.50251244  0.39748340  0.48738844     0.06970
C455        C  0.47203205  0.36791860  0.48517441    -0.15180
C456        C  0.46931807  0.34018054  0.50455682    -0.15180
C457        C  0.49718000  0.34128507  0.52396495     0.06970
C458        C  0.02727291  0.37095336  0.52854248    -0.15180
H459        H  0.05362469  0.42183595  0.51412687     0.10950
H460        H  0.45034570  0.36636473  0.46924689     0.10950
H461        H  0.44567009  0.31747755  0.50267237     0.10950
H462        H  0.04847949  0.37227435  0.54582055     0.10950
C463        C  0.49499811  0.10857004  0.50532909    -0.15180
C464        C  0.02366996  0.11352731  0.52948597     0.06970
C465        C  0.05223897  0.14513090  0.53145074    -0.15180
C466        C  0.05190925  0.17114861  0.50966663    -0.15180
C467        C  0.02286786  0.16604072  0.48666716     0.06970
C468        C  0.49469194  0.13429412  0.48389306    -0.15180
H469        H  0.47273436  0.08453714  0.50182538     0.10950
H470        H  0.07494062  0.14955034  0.54865667     0.10950
H471        H  0.07397149  0.19531343  0.51207708     0.10950
H472        H  0.47179550  0.12940864  0.46665711     0.10950
C473        C  0.50074262  0.47495246  0.76216854    -0.15180
C474        C  0.51590848  0.50154972  0.79927533     0.06970
C475        C  0.03451663  0.03320819  0.77959050    -0.15180
C476        C  0.03664697  0.03805237  0.72401518    -0.15180
C477        C  0.51960158  0.51138385  0.68749945     0.06970
C478        C  0.50214723  0.47984414  0.70703180    -0.15180
H479        H  0.48609403  0.45026775  0.77580188     0.10950
H480        H  0.04645914  0.05415434  0.80711446     0.10950
H481        H  0.04975318  0.06262932  0.70977707     0.10950
H482        H  0.48848346  0.45899161  0.67961083     0.10950
C483        C  0.03358372  0.98785711  0.21533088    -0.15180
C484        C  0.00730604  0.98479644  0.18529099     0.06970
C485        C  0.47926923  0.47912597  0.21318351    -0.15180
C486        C  0.47779686  0.47710782  0.26934878    -0.15180
C487        C  0.00419724  0.98041310  0.29942892     0.06970
C488        C  0.03199093  0.98555243  0.27152937    -0.15180
H489        H  0.05564611  0.99247348  0.19545730     0.10950
H490        H  0.45869023  0.47701903  0.19170720     0.10950
H491        H  0.45594922  0.47307544  0.28925049     0.10950
H492        H  0.05276757  0.98822558  0.29321859     0.10950
C493        C  0.34353985  0.37732465  0.92964211    -0.15180
C494        C  0.34340753  0.34889041  0.93793158     0.06970
C495        C  0.37133857  0.34833690  0.92563559    -0.15180
C496        C  0.40036490  0.37702269  0.91200599    -0.15180
C497        C  0.40185868  0.40664073  0.91062924     0.06970
C498        C  0.37255751  0.40595766  0.91455374    -0.15180
H499        H  0.32172478  0.37781223  0.93772696     0.10950
H500        H  0.37150783  0.32651811  0.93097379     0.10950
H501        H  0.42266041  0.37683439  0.90846695     0.10950
H502        H  0.37289164  0.42815011  0.91163864     0.10950
C503        C  0.09494388  0.12855282  0.07091842    -0.15180
C504        C  0.09131897  0.09853572  0.07941145     0.06970
C505        C  0.12024424  0.09833473  0.08637643    -0.15180
C506        C  0.15171941  0.12653450  0.08037851    -0.15180
C507        C  0.15536999  0.15597566  0.06681084     0.06970
C508        C  0.12653833  0.15689900  0.06465380    -0.15180
H509        H  0.07339532  0.12959360  0.06436910     0.10950
H510        H  0.11838091  0.07546596  0.09155901     0.10950
H511        H  0.17301377  0.12459248  0.08226833     0.10950
H512        H  0.12816648  0.17907331  0.05434029     0.10950
C513        C  0.37804172  0.46429835  0.00533660    -0.15180
C514        C  0.40294170  0.99422123  0.02988938     0.06970
C515        C  0.39698610  0.01906828  0.03517746    -0.15180
C516        C  0.36808665  0.01480799  0.01345173    -0.15180
C517        C  0.34410093  0.48586532  0.98529479     0.06970
C518        C  0.34918582  0.46021523  0.98271054    -0.15180
H519        H  0.38153158  0.44425620  0.00257210     0.10950
H520        H  0.41535856  0.04237795  0.05356300     0.10950
H521        H  0.36463883  0.03453729  0.01893543     0.10950
H522        H  0.33080909  0.43701746  0.96406103     0.10950
C523        C  0.12682540  0.53149721  0.96624088    -0.15180
C524        C  0.10216578  0.49960519  0.94813086     0.06970
C525        C  0.10626757  0.47407596  0.95793557    -0.15180
C526        C  0.13326914  0.97987781  0.98798950    -0.15180
C527        C  0.15757408  0.01164164  0.00709757     0.06970
C528        C  0.15399668  0.03736140  0.99605343    -0.15180
H529        H  0.12431293  0.55186856  0.95965330     0.10950
H530        H  0.08774768  0.44941853  0.94490631     0.10950
H531        H  0.13544345  0.95936782  0.99517272     0.10950
H532        H  0.17254640  0.06203008  0.00916279     0.10950
C533        C  0.04581651  0.40074088  0.01418571    -0.15180
C534        C  0.01946120  0.40511231  0.00933537     0.06970
C535        C  0.49077122  0.38064071  0.98133324    -0.15180
C536        C  0.48768228  0.35222275  0.96136722    -0.15180
C537        C  0.51278094  0.34652593  0.96956706     0.06970
C538        C  0.04256364  0.37175339  0.99412427    -0.15180
H539        H  0.06854796  0.41932981  0.03400645     0.10950
H540        H  0.47005554  0.38312077  0.97483963     0.10950
H541        H  0.46452106  0.33368359  0.94248977     0.10950
H542        H  0.06278891  0.36855806  0.00004860     0.10950
C543        C  0.46298653  0.08866869  0.97327659    -0.15180
C544        C  0.49080082  0.08694542  0.96647630     0.06970
C545        C  0.02183592  0.11392658  0.98283111    -0.15180
C546        C  0.02495880  0.14167603  0.00690240    -0.15180
C547        C  0.99711689  0.14333422  0.01468821     0.06970
C548        C  0.46612287  0.11646488  0.99766125    -0.15180
H549        H  0.43874066  0.06799525  0.96234209     0.10950
H550        H  0.04370530  0.11306937  0.97842504     0.10950
H551        H  0.04930826  0.16219524  0.01790148     0.10950
H552        H  0.44426314  0.11693830  0.00311656     0.10950
O553        O  0.45958792  0.52318320  0.06754623    -0.81970
O554        O  0.99555184  0.93529682  0.01908508    -0.81990
O555        O  0.44527840  0.96448815  0.90616378    -0.82000
O556        O  0.03842973  0.50287161  0.10396975    -0.81940
O557        O  0.45043073  0.93366707  0.96014847    -0.82070
O558        O  0.98527432  0.48555423  0.09963295    -0.81990
O559        O  0.04789900  0.96346023  0.03093304    -0.81970
O560        O  0.44472055  0.98554877  0.00442357    -0.82010
C561        C  0.43697692  0.50126516  0.03614511     1.07720
C562        C  0.02112288  0.93559042  0.02630759     1.07600
C563        C  0.43384508  0.93653659  0.92506980     1.07740
C564        C  0.01019804  0.49047880  0.12623923     1.07620
O565        O  0.03266575  0.55325293  0.08325733    -0.81970
O566        O  0.49754394  0.96707185  0.87413188    -0.82050
O567        O  0.46614811  0.53191043  0.92759097    -0.81980
O568        O  0.06450512  0.51421021  0.95059886    -0.81960
O569        O  0.04394538  0.96384119  0.93192365    -0.82020
O570        O  0.50602625  0.55068728  0.98797171    -0.81980
O571        O  0.06408370  0.55308645  0.02158934    -0.81940
O572        O  0.51260860  0.01818446  0.88935466    -0.82010
Co573      Co  0.99315883  0.51507178  0.04107677     1.51530
Co574      Co  0.49665309  0.95124998  0.94851228     1.51690
Co575      Co  0.48135726  0.00421650  0.94951454     1.51570
Co576      Co  0.05228963  0.50826469  0.02547094     1.51470
O577        O  0.50805803  0.49171222  0.99183854    -1.43910
C578        C  0.06086346  0.56722807  0.06139812     1.07650
C579        C  0.50941472  0.99576989  0.85751764     1.07740
C580        C  0.48727584  0.55519359  0.95868456     1.07670
C581        C  0.06913902  0.99268639  0.93579665     1.07650
O582        O  0.02451737  0.47755510  0.38592391    -0.81970
O583        O  0.49748910  0.55632737  0.53922735    -0.81990
O584        O  0.42628652  0.95865166  0.45369061    -0.82000
O585        O  0.03150875  0.55508618  0.45082551    -0.81940
O586        O  0.45436294  0.00948668  0.47272371    -0.82070
O587        O  0.06330977  0.53831968  0.42628892    -0.81990
O588        O  0.05132052  0.58659903  0.54878563    -0.81970
O589        O  0.47839074  0.97593693  0.38375847    -0.82010
C590        C  0.00250407  0.47836340  0.35935529     1.07720
C591        C  0.02440093  0.58461671  0.54281674     1.07600
C592        C  0.42709156  0.98448215  0.46190309     1.07740
C593        C  0.05542952  0.55925257  0.42376965     1.07620
O594        O  0.06259823  0.50940293  0.53222300    -0.81970
O595        O  0.43469676  0.95953925  0.55499703    -0.82050
O596        O  0.48612972  0.92801848  0.43823668    -0.81980
O597        O  0.03830651  0.53246687  0.60005827    -0.81960
O598        O  0.48577998  0.00375267  0.61378584    -0.82020
O599        O  0.02721884  0.95350500  0.49353247    -0.81980
O600        O  0.08228431  0.55823384  0.51809255    -0.81940
O601        O  0.44959086  0.92840085  0.51784412    -0.82010
Co602      Co  0.04168301  0.49455007  0.46203101     1.51530
Co603      Co  0.47153426  0.00620422  0.54119430     1.51690
Co604      Co  0.46468482  0.95319704  0.45218405     1.51570
Co605      Co  0.03338993  0.54256946  0.52444199     1.51470
O606        O  0.00274913  0.49473258  0.49735576    -1.43910
C607        C  0.08776621  0.53659862  0.52766487     1.07650
C608        C  0.43091204  0.93180771  0.54855646     1.07740
C609        C  0.00531611  0.92751443  0.47182000     1.07670
C610        C  0.51466235  0.01612964  0.63094952     1.07650
O611        O  0.05353348  0.74844412  0.96425233    -0.81970
O612        O  0.47384177  0.78963491  0.96657533    -0.81750
O613        O  0.50998309  0.74924437  0.90895024    -0.82000
O614        O  0.05303691  0.82910614  0.07430255    -0.81940
O615        O  0.45922078  0.73610201  0.90393817    -0.82070
O616        O  0.06538818  0.79402077  0.04390161    -0.81990
O617        O  0.52478519  0.80534869  0.97743578    -0.81970
O618        O  0.02113974  0.70072278  0.92274282    -0.82010
C619        C  0.05027339  0.72480535  0.93464614     1.07720
C620        C  0.50406265  0.81221985  0.96568894     1.07600
C621        C  0.48605090  0.74453878  0.88134450     1.07740
C622        C  0.07395961  0.82329530  0.05456690     1.07620
O623        O  0.02731998  0.74115552  0.11805955    -0.81970
O624        O  0.42571295  0.69588085  0.99186678    -0.82050
O625        O  0.48049485  0.68038081  0.01280124    -0.81980
O626        O  0.48023181  0.79746076  0.06671896    -0.81960
O627        O  0.44005437  0.74698416  0.05417254    -0.82020
O628        O  0.02832700  0.69978789  0.04199748    -0.81980
O629        O  0.00712444  0.77178857  0.12282404    -0.81940
O630        O  0.45245776  0.68377292  0.93448270    -0.82010
Co631      Co  0.03744464  0.74524287  0.04037841     1.51530
Co632      Co  0.45218321  0.74196394  0.98127303     1.51690
Co633      Co  0.49788239  0.71670922  0.96397743     1.51570
Co634      Co  0.01614103  0.78701321  0.04929084     1.51470
O635        O  0.49088103  0.74163171  0.01827229    -1.43910
C636        C  0.01439501  0.75362505  0.14479661     1.07650
C637        C  0.42859138  0.67498491  0.96646173     1.07740
C638        C  0.00134394  0.67511578  0.02792443     1.07670
C639        C  0.44946171  0.77533448  0.07025449     1.07650
O640        O  0.02588724  0.71598789  0.58066899    -0.81970
O641        O  0.51079795  0.80339955  0.49656902    -0.81990
O642        O  0.07185048  0.78926563  0.46312407    -0.82000
O643        O  0.47966445  0.75146189  0.62886283    -0.81940
O644        O  0.03604461  0.80424929  0.47735375    -0.82070
O645        O  0.47028736  0.70166206  0.62852072    -0.81990
O646        O  0.47235229  0.78938119  0.55810597    -0.81970
O647        O  0.04931013  0.76784099  0.56355617    -0.82010
C648        C  0.05022399  0.74524127  0.58581069     1.07720
C649        C  0.49474914  0.81042111  0.52921319     1.07600
C650        C  0.06643817  0.81171629  0.47240230     1.07740
C651        C  0.47759482  0.72822966  0.65317963     1.07620
O652        O  0.43522051  0.67125736  0.52390197    -0.81970
O653        O  0.00055167  0.77823107  0.38968204    -0.82050
O654        O  0.04182091  0.72286680  0.48215005    -0.81980
O655        O  0.42125939  0.73102479  0.50651969    -0.81960
O656        O  0.45372752  0.76751123  0.45055607    -0.82020
O657        O  0.49017885  0.68754585  0.47857972    -0.81980
O658        O  0.42175234  0.69548384  0.58243255    -0.81940
O659        O  0.01490106  0.74387726  0.40831087    -0.82010
Co660      Co  0.47994923  0.69529700  0.55112104     1.51530
Co661      Co  0.99095328  0.75999337  0.45767361     1.51690
Co662      Co  0.03008860  0.75711490  0.48951064     1.51570
Co663      Co  0.45174669  0.74220313  0.56684905     1.51470
O664        O  0.48481606  0.73625139  0.52423886    -1.43910
C665        C  0.41383243  0.67506464  0.54409560     1.07650
C666        C  0.00790497  0.75835726  0.37338348     1.07740
C667        C  0.01867757  0.69331047  0.47678074     1.07670
C668        C  0.42527038  0.74931216  0.46935407     1.07650
O669        O  0.21503750  0.54572323  0.03051770    -0.81970
O670        O  0.24459147  0.94697215  0.02465900    -0.81990
O671        O  0.18643714  0.94841169  0.96920530    -0.82000
O672        O  0.24246760  0.49013396  0.09311544    -0.81940
O673        O  0.21596929  0.93113019  0.93533687    -0.82070
O674        O  0.26015985  0.54201298  0.09924732    -0.81990
O675        O  0.28779175  0.97272922  0.07677105    -0.81970
O676        O  0.19310988  0.99497340  0.02124837    -0.82010
C677        C  0.18915542  0.51770093  0.02696875     1.07720
C678        C  0.26405475  0.94577866  0.05752422     1.07600
C679        C  0.19059080  0.92584623  0.96025938     1.07740
C680        C  0.24946144  0.51488286  0.12136865     1.07620
O681        O  0.30617916  0.56863082  0.00945444    -0.81970
O682        O  0.26582587  0.99039123  0.88215600    -0.82050
O683        O  0.21267734  0.53539086  0.92466838    -0.81980
O684        O  0.30805365  0.50482233  0.98195514    -0.81960
O685        O  0.28788889  0.95712599  0.94427814    -0.82020
O686        O  0.26383219  0.56986947  0.94860998    -0.81980
O687        O  0.31084205  0.53873392  0.06685359    -0.81940
O688        O  0.21735180  0.98571830  0.87281137    -0.82010
Co689      Co  0.26076768  0.55334256  0.02047864     1.51530
Co690      Co  0.25834061  0.97350804  0.95604033     1.51690
Co691      Co  0.20481983  0.99171326  0.94813116     1.51570
Co692      Co  0.27304478  0.49650377  0.03582755     1.51470
O693        O  0.24880801  0.00847067  0.98447855    -1.43910
C694        C  0.32380035  0.56258797  0.03629463     1.07650
C695        C  0.24328745  0.98859546  0.85261603     1.07740
C696        C  0.23804929  0.56427574  0.92577400     1.07670
C697        C  0.31253768  0.98230428  0.96735008     1.07650
O698        O  0.25068083  0.55195754  0.51658522    -0.81970
O699        O  0.28405279  0.95663683  0.52347547    -0.81990
O700        O  0.25363469  0.01038139  0.59436837    -0.82000
O701        O  0.31120190  0.55596381  0.47632430    -0.81940
O702        O  0.23777113  0.95875549  0.58995742    -0.82070
O703        O  0.27948805  0.56156596  0.42272882    -0.81990
O704        O  0.31286841  0.50923030  0.52051443    -0.81970
O705        O  0.20958956  0.52885105  0.57228795    -0.82010
C706        C  0.23094105  0.55427134  0.54815557     1.07720
C707        C  0.31187145  0.98336954  0.52600657     1.07600
C708        C  0.24766469  0.98521331  0.61762896     1.07740
C709        C  0.30440649  0.57397559  0.45332162     1.07620
O710        O  0.23139894  0.49816910  0.38040923    -0.81970
O711        O  0.19466841  0.93714165  0.49124820    -0.82050
O712        O  0.19125533  0.99650480  0.47462609    -0.81980
O713        O  0.29229813  0.97051549  0.42099472    -0.81960
O714        O  0.23965848  0.93657614  0.43315988    -0.82020
O715        O  0.21394258  0.53937585  0.42516858    -0.81980
O716        O  0.28465989  0.51698146  0.37426188    -0.81940
O717        O  0.18725560  0.96123144  0.55889832    -0.82010
Co718      Co  0.23900813  0.52172059  0.44926849     1.51530
Co719      Co  0.23913319  0.94945791  0.50852957     1.51690
Co720      Co  0.22529049  0.00438265  0.53318838     1.51570
Co721      Co  0.29810156  0.51281304  0.44993743     1.51470
O722        O  0.25328821  0.99428106  0.48375308    -1.43910
C723        C  0.25649046  0.50657322  0.35215377     1.07650
C724        C  0.17638308  0.93674299  0.52698409     1.07740
C725        C  0.18980053  0.51933275  0.45322098     1.07670
C726        C  0.26649364  0.94223376  0.41457854     1.07650
O727        O  0.18833053  0.70711555  0.02568580    -0.81970
O728        O  0.24448613  0.80178418  0.05899207    -0.81990
O729        O  0.26536219  0.72655040  0.11240517    -0.82000
O730        O  0.19767759  0.75701848  0.95878569    -0.81940
O731        O  0.24911560  0.76070070  0.11763935    -0.82070
O732        O  0.17494466  0.70822065  0.91998370    -0.81990
O733        O  0.25642019  0.81794312  0.97805847    -0.81970
O734        O  0.21361077  0.68231095  0.04551929    -0.82010
C735        C  0.18776731  0.68372639  0.04699689     1.07720
C736        C  0.24969442  0.82235698  0.02515498     1.07600
C737        C  0.25512207  0.74172453  0.13943325     1.07740
C738        C  0.17259008  0.73188121  0.93463511     1.07620
O739        O  0.23866675  0.74087692  0.88668784    -0.81970
O740        O  0.31643422  0.78552561  0.08262907    -0.82050
O741        O  0.26274258  0.70451608  0.95688523    -0.81980
O742        O  0.29548544  0.79582616  0.93571783    -0.81960
O743        O  0.30936607  0.82415512  0.01273547    -0.82020
O744        O  0.21093964  0.68206254  0.94256871    -0.81980
O745        O  0.24252535  0.78792548  0.88289320    -0.81940
O746        O  0.31071239  0.74752460  0.02510910    -0.82010
Co747      Co  0.21469215  0.72512453  0.96032329     1.51530
Co748      Co  0.27799403  0.79047743  0.06468675     1.51690
Co749      Co  0.26261982  0.71732974  0.03263118     1.51570
Co750      Co  0.24790698  0.77489738  0.94957557     1.51470
O751        O  0.25445244  0.75239469  0.00993985    -1.43910
C752        C  0.24269786  0.76484211  0.85912010     1.07650
C753        C  0.32821727  0.77065132  0.05850172     1.07740
C754        C  0.23628666  0.68063664  0.93819701     1.07670
C755        C  0.31521150  0.82112270  0.96366096     1.07650
O756        O  0.19474908  0.69219819  0.43882262    -0.81970
O757        O  0.23339104  0.80846689  0.46184468    -0.81990
O758        O  0.17746466  0.73290733  0.58672651    -0.82000
O759        O  0.25413951  0.76698196  0.39376196    -0.81940
O760        O  0.18451291  0.76788548  0.52753859    -0.82070
O761        O  0.25085844  0.72175364  0.39439220    -0.81990
O762        O  0.28385614  0.82175512  0.44712004    -0.81970
O763        O  0.16543657  0.68800056  0.50826427    -0.82010
C764        C  0.16716579  0.68010529  0.46034372     1.07720
C765        C  0.26084517  0.82683408  0.44009923     1.07600
C766        C  0.16836125  0.75008114  0.56548074     1.07740
C767        C  0.25150799  0.74329039  0.36814768     1.07620
O768        O  0.28936289  0.74245776  0.48865764    -0.81970
O769        O  0.23310916  0.78179850  0.61099795    -0.82050
O770        O  0.22016495  0.68380742  0.54608493    -0.81980
O771        O  0.29719171  0.79206020  0.53751416    -0.81960
O772        O  0.28095387  0.82521265  0.54698343    -0.82020
O773        O  0.24031882  0.68066644  0.46780528    -0.81980
O774        O  0.31462521  0.78540799  0.43674075    -0.81940
O775        O  0.24166833  0.74196620  0.60452358    -0.82010
Co776      Co  0.23963196  0.71845544  0.47072748     1.51530
Co777      Co  0.23251370  0.79281327  0.53399127     1.51690
Co778      Co  0.20472724  0.71623554  0.55501679     1.51570
Co779      Co  0.27434016  0.77720587  0.46611491     1.51470
O780        O  0.23095299  0.75320088  0.49770112    -1.43910
C781        C  0.31429149  0.76217521  0.45924449     1.07650
C782        C  0.24248679  0.76453062  0.63151008     1.07740
C783        C  0.23073464  0.67014435  0.51418880     1.07670
C784        C  0.30302969  0.81921886  0.55389693     1.07650
C785        C  0.24664279  0.74096044  0.77166256    -0.15180
C786        C  0.24849373  0.76672454  0.80126685     0.06970
C787        C  0.25373472  0.79405252  0.77461555    -0.15180
C788        C  0.25419955  0.79438622  0.71898039    -0.15180
C789        C  0.24970252  0.76754312  0.68913811     0.06970
C790        C  0.24740959  0.74142872  0.71575894    -0.15180
H791        H  0.24300181  0.71985613  0.79144033     0.10950
H792        H  0.25589092  0.81461223  0.79656562     0.10950
H793        H  0.25640868  0.81492333  0.69932639     0.10950
H794        H  0.24401584  0.72042686  0.69346105     0.10950
C795        C  0.25692217  0.76766734  0.22642483    -0.15180
C796        C  0.25294357  0.74050380  0.19775213     0.06970
C797        C  0.24774774  0.71366580  0.22531016    -0.15180
C798        C  0.24643611  0.71410410  0.28126931    -0.15180
C799        C  0.25065670  0.74150638  0.30965582     0.06970
C800        C  0.25581138  0.76817983  0.28182541    -0.15180
H801        H  0.26153790  0.78896872  0.20601468     0.10950
H802        H  0.24464597  0.69258152  0.20373910     0.10950
H803        H  0.24251066  0.69325996  0.30231312     0.10950
H804        H  0.25951544  0.78968366  0.30283619     0.10950
C805        C  0.23905023  0.88372382  0.38715522    -0.15180
C806        C  0.26843955  0.91393988  0.39720593     0.06970
C807        C  0.29759623  0.91452209  0.40587841    -0.15180
C808        C  0.29621814  0.88547630  0.41433510    -0.15180
C809        C  0.26572056  0.85555450  0.41246645     0.06970
C810        C  0.23774181  0.85487104  0.39453917    -0.15180
H811        H  0.21626111  0.88235747  0.37930174     0.10950
H812        H  0.32079350  0.93748895  0.41199379     0.10950
H813        H  0.31828489  0.88677473  0.42751809     0.10950
H814        H  0.21400531  0.83211999  0.39150955     0.10950
C815        C  0.25267913  0.60783484  0.51000946    -0.15180
C816        C  0.23255392  0.58552451  0.54871286     0.06970
C817        C  0.21234735  0.59229913  0.57966058    -0.15180
C818        C  0.21237003  0.62076987  0.57086056    -0.15180
C819        C  0.23242493  0.64232496  0.53085714     0.06970
C820        C  0.25309659  0.63577080  0.50193843    -0.15180
H821        H  0.26689799  0.60295550  0.48261584     0.10950
H822        H  0.19581576  0.57520054  0.60872870     0.10950
H823        H  0.19584046  0.62516758  0.59340749     0.10950
H824        H  0.26874540  0.65157536  0.47073760     0.10950
C825        C  0.23681433  0.50604754  0.76202679    -0.15180
C826        C  0.24649160  0.98887078  0.79273067     0.06970
C827        C  0.25710536  0.97043723  0.76537422    -0.15180
C828        C  0.25737148  0.96869412  0.70859534    -0.15180
C829        C  0.24821554  0.98636049  0.67795397     0.06970
C830        C  0.23820812  0.50524973  0.70571709    -0.15180
H831        H  0.22830183  0.52024366  0.78162300     0.10950
H832        H  0.26421655  0.95653781  0.78793216     0.10950
H833        H  0.26495182  0.95380574  0.68873110     0.10950
H834        H  0.23058206  0.51887614  0.68355265     0.10950
C835        C  0.26638440  0.49856341  0.20244672    -0.15180
C836        C  0.25027446  0.51270094  0.18057002     0.06970
C837        C  0.23581315  0.52437577  0.21556903    -0.15180
C838        C  0.23696443  0.52134598  0.27135593    -0.15180
C839        C  0.25365072  0.50772325  0.29311063     0.06970
C840        C  0.26860120  0.49666145  0.25809140    -0.15180
H841        H  0.27826625  0.98988851  0.17629341     0.10950
H842        H  0.22330957  0.53536958  0.19979020     0.10950
H843        H  0.22554227  0.53041186  0.29769633     0.10950
H844        H  0.28198442  0.98652210  0.27369481     0.10950
C845        C  0.28704984  0.91085139  0.06795897    -0.15180
C846        C  0.25961552  0.91363930  0.06540519     0.06970
C847        C  0.22829578  0.88515353  0.05545194    -0.15180
C848        C  0.22475157  0.85515039  0.04395688    -0.15180
C849        C  0.25252466  0.85304113  0.04212979     0.06970
C850        C  0.28357045  0.88084659  0.05582745    -0.15180
H851        H  0.31143695  0.93225637  0.07519322     0.10950
H852        H  0.20667225  0.88645606  0.05354634     0.10950
H853        H  0.20056012  0.83395118  0.03427021     0.10950
H854        H  0.30531154  0.87958951  0.05521531     0.10950
C855        C  0.20668998  0.59147965  0.90728565    -0.15180
C856        C  0.23670001  0.59301638  0.91038444     0.06970
C857        C  0.26605253  0.62400057  0.91111570    -0.15180
C858        C  0.26547740  0.65232056  0.91515841    -0.15180
C859        C  0.23553942  0.65079527  0.91914348     0.06970
C860        C  0.20603543  0.62003516  0.91253790    -0.15180
H861        H  0.18367729  0.56814489  0.90477875     0.10950
H862        H  0.28972255  0.62642866  0.91267112     0.10950
H863        H  0.28877960  0.67547561  0.91906447     0.10950
H864        H  0.18249256  0.61784056  0.91481185     0.10950
C865        C  0.35338228  0.64084958  0.54928685    -0.15180
C866        C  0.38147187  0.65799241  0.51855466     0.06970
C867        C  0.37934266  0.65391588  0.46222776    -0.15180
C868        C  0.35033520  0.62909699  0.43752666    -0.15180
C869        C  0.32385072  0.60818803  0.46942369     0.06970
C870        C  0.32466091  0.61564453  0.52476786    -0.15180
H871        H  0.35477664  0.64393588  0.59264164     0.10950
H872        H  0.40107497  0.66774614  0.43800666     0.10950
H873        H  0.35033417  0.62336871  0.39516237     0.10950
H874        H  0.30482773  0.59922762  0.55050265     0.10950
C875        C  0.12161081  0.84867051  0.51348511    -0.15180
C876        C  0.09410119  0.84485569  0.48727298     0.06970
C877        C  0.09208356  0.87220055  0.48145592    -0.15180
C878        C  0.11725462  0.90286990  0.50205090    -0.15180
C879        C  0.14437179  0.90629003  0.52955942     0.06970
C880        C  0.14573162  0.87864544  0.53621232    -0.15180
H881        H  0.12483541  0.82853794  0.51542367     0.10950
H882        H  0.07162161  0.86996461  0.45945195     0.10950
H883        H  0.11674487  0.92412771  0.49307935     0.10950
H884        H  0.16744823  0.88100684  0.55395970     0.10950
C885        C  0.36524559  0.72562560  0.47192148    -0.15180
C886        C  0.39623945  0.75024403  0.45351380     0.06970
C887        C  0.39913005  0.77743109  0.43010456    -0.15180
C888        C  0.37237602  0.78146152  0.43090116    -0.15180
C889        C  0.34242061  0.75808022  0.45436490     0.06970
C890        C  0.33886276  0.72959622  0.47272563    -0.15180
H891        H  0.36177617  0.70390401  0.48900615     0.10950
H892        H  0.42249965  0.79646944  0.41455592     0.10950
H893        H  0.37549104  0.80331539  0.41505466     0.10950
H894        H  0.31585634  0.71060718  0.48934681     0.10950
C895        C  0.11150460  0.77958247  0.59344521    -0.15180
C896        C  0.08206089  0.75039575  0.60421350     0.06970
C897        C  0.08362343  0.72320309  0.61617941    -0.15180
C898        C  0.11260517  0.72364824  0.60750808    -0.15180
C899        C  0.14025416  0.75120772  0.58659286     0.06970
C900        C  0.14015728  0.77982452  0.58298890    -0.15180
H901        H  0.11148841  0.80137743  0.58850768     0.10950
H902        H  0.06154114  0.70038647  0.62623723     0.10950
H903        H  0.11237259  0.70158023  0.61232322     0.10950
H904        H  0.16181318  0.80202259  0.56969142     0.10950
C905        C  0.00033030  0.72488501  0.74072205    -0.15180
C906        C  0.48026677  0.73182168  0.71154672     0.06970
C907        C  0.46411997  0.74503578  0.73798609    -0.15180
C908        C  0.46721535  0.75052287  0.79324303    -0.15180
C909        C  0.48712647  0.74357541  0.82276263     0.06970
C910        C  0.00406884  0.73112535  0.79625557    -0.15180
H911        H  0.01331771  0.71517459  0.72057597     0.10950
H912        H  0.44866023  0.75070227  0.71578653     0.10950
H913        H  0.45370129  0.75975403  0.81306838     0.10950
H914        H  0.01909874  0.72505953  0.81870623     0.10950
C915        C  0.02666170  0.73961898  0.23418917    -0.15180
C916        C  0.00871010  0.74844781  0.20270467     0.06970
C917        C  0.48758388  0.75607870  0.22788477    -0.15180
C918        C  0.48634174  0.75748552  0.28342099    -0.15180
C919        C  0.00612340  0.75122526  0.31525619     0.06970
C920        C  0.02534045  0.74097649  0.29044373    -0.15180
H921        H  0.04305649  0.73353145  0.21553958     0.10950
H922        H  0.47299311  0.76238644  0.20465623     0.10950
H923        H  0.47067941  0.76469776  0.30153208     0.10950
H924        H  0.04060621  0.73583483  0.31432872     0.10950
C925        C  0.40308091  0.63831873  0.04139898    -0.15180
C926        C  0.40849542  0.64193995  0.98561586     0.06970
C927        C  0.39239206  0.61474810  0.95080390    -0.15180
C928        C  0.36761300  0.58516357  0.97092219    -0.15180
C929        C  0.35877117  0.58296026  0.02553743     0.06970
C930        C  0.37833990  0.60885722  0.06133947    -0.15180
H931        H  0.41627370  0.65907265  0.06915806     0.10950
H932        H  0.39671513  0.61701516  0.90801768     0.10950
H933        H  0.35231428  0.56525967  0.94262054     0.10950
H934        H  0.37165222  0.60777789  0.10313965     0.10950
C935        C  0.12663063  0.87831309  0.06201706    -0.15180
C936        C  0.10672950  0.84851143  0.03491042     0.06970
C937        C  0.11815850  0.84199965  0.98659634    -0.15180
C938        C  0.14781777  0.86580647  0.96352706    -0.15180
C939        C  0.16680774  0.89633361  0.98915216     0.06970
C940        C  0.15669981  0.90161015  0.04005940    -0.15180
H941        H  0.11876600  0.88376805  0.09940257     0.10950
H942        H  0.10296973  0.81904915  0.96473906     0.10950
H943        H  0.15442312  0.86120651  0.92423663     0.10950
H944        H  0.17105233  0.92509470  0.06099031     0.10950
C945        C  0.42147139  0.80689278  0.06252338    -0.15180
C946        C  0.42246058  0.78096909  0.08356158     0.06970
C947        C  0.39288054  0.75465840  0.10352194    -0.15180
C948        C  0.36293548  0.75268522  0.09803075    -0.15180
C949        C  0.36139356  0.77720376  0.07328288     0.06970
C950        C  0.39119688  0.80503613  0.05739735    -0.15180
H951        H  0.44346885  0.82726013  0.04607300     0.10950
H952        H  0.39241140  0.73405315  0.11950802     0.10950
H953        H  0.34048842  0.73096588  0.11064699     0.10950
H954        H  0.39079023  0.82427727  0.03779156     0.10950
C955        C  0.08131137  0.69795796  0.91355874    -0.15180
C956        C  0.08079122  0.72630181  0.91973086     0.06970
C957        C  0.11097853  0.75654980  0.92467011    -0.15180
C958        C  0.14074855  0.75833558  0.92853260    -0.15180
C959        C  0.14117264  0.72992247  0.92645690     0.06970
C960        C  0.11132348  0.69975720  0.91684539    -0.15180
H961        H  0.05851452  0.67436249  0.90996027     0.10950
H962        H  0.11147587  0.77888950  0.92889683     0.10950
H963        H  0.16336204  0.78193144  0.93458706     0.10950
H964        H  0.11099073  0.67742466  0.91446365     0.10950
C965        C  0.39559749  0.87129933  0.55647981    -0.15180
C966        C  0.40099992  0.90218326  0.56854561     0.06970
C967        C  0.37473543  0.90390196  0.58889713    -0.15180
C968        C  0.34286825  0.87595514  0.58951322    -0.15180
C969        C  0.33681950  0.84573570  0.57067322     0.06970
C970        C  0.36381491  0.84332189  0.55761884    -0.15180
H971        H  0.41537516  0.86899234  0.54156385     0.10950
H972        H  0.37808547  0.92719375  0.59923556     0.10950
H973        H  0.32261126  0.87851355  0.60044325     0.10950
H974        H  0.36006881  0.82037707  0.54332074     0.10950
C975        C  0.11140671  0.59936221  0.38995847    -0.15180
C976        C  0.08045486  0.59255433  0.40644716     0.06970
C977        C  0.07808955  0.61873790  0.42505316    -0.15180
C978        C  0.10659971  0.64890961  0.43896604    -0.15180
C979        C  0.13765996  0.65377285  0.43107981     0.06970
C980        C  0.13983881  0.62983284  0.40213919    -0.15180
H981        H  0.11417114  0.58004730  0.37433502     0.10950
H982        H  0.05441428  0.61470568  0.43530976     0.10950
H983        H  0.10451811  0.66763206  0.45909260     0.10950
H984        H  0.16362780  0.63319972  0.39467974     0.10950
C985        C  0.36925478  0.45497557  0.49507253    -0.15180
C986        C  0.39685439  0.98355431  0.47568725     0.06970
C987        C  0.39733826  0.01244649  0.47852526    -0.15180
C988        C  0.37059176  0.01271106  0.49913160    -0.15180
C989        C  0.34259182  0.98402714  0.51746228     0.06970
C990        C  0.34248629  0.45526881  0.51628367    -0.15180
H991        H  0.36854265  0.43245803  0.49436643     0.10950
H992        H  0.41850488  0.03491222  0.46487022     0.10950
H993        H  0.37142717  0.03529630  0.49871945     0.10950
H994        H  0.32118035  0.43272400  0.52936098     0.10950
C995        C  0.14146947  0.55931267  0.47934930    -0.15180
C996        C  0.11855133  0.53809268  0.51658216     0.06970
C997        C  0.11998190  0.51163563  0.53272744    -0.15180
C998        C  0.14179003  0.50484272  0.50935335    -0.15180
C999        C  0.16394770  0.52504011  0.47053539     0.06970
C1000       C  0.16426461  0.55293534  0.45665868    -0.15180
H1001       H  0.14078832  0.57979435  0.46615131     0.10950
H1002       H  0.10260419  0.49477376  0.56133202     0.10950
H1003       H  0.14146136  0.48376132  0.52248120     0.10950
H1004       H  0.18199480  0.56967202  0.42839396     0.10950
C1005       C  0.03000030  0.89900556  0.51052995    -0.15180
C1006       C  0.50253888  0.89748682  0.48740568     0.06970
C1007       C  0.47205623  0.86792449  0.48518841    -0.15180
C1008       C  0.46933503  0.84018601  0.50458354    -0.15180
C1009       C  0.49719221  0.84128793  0.52400870     0.06970
C1010       C  0.02728710  0.87095397  0.52859164    -0.15180
H1011       H  0.05364753  0.92183536  0.51416486     0.10950
H1012       H  0.45037391  0.86637263  0.46924616     0.10950
H1013       H  0.44568588  0.81748423  0.50269231     0.10950
H1014       H  0.04849070  0.87227218  0.54587768     0.10950
C1015       C  0.49498166  0.60856846  0.50535940    -0.15180
C1016       C  0.02364891  0.61352331  0.52952979     0.06970
C1017       C  0.05221994  0.64512541  0.53150266    -0.15180
C1018       C  0.05189638  0.67114480  0.50971395    -0.15180
C1019       C  0.02285928  0.66603977  0.48670259     0.06970
C1020       C  0.49468180  0.63429446  0.48391866    -0.15180
H1021       H  0.47271718  0.58453622  0.50184741     0.10950
H1022       H  0.07491861  0.64954232  0.54871748     0.10950
H1023       H  0.07395960  0.69530868  0.51213024     0.10950
H1024       H  0.47178883  0.62941197  0.46667233     0.10950
C1025       C  0.50075502  0.97497059  0.76215901    -0.15180
C1026       C  0.51591256  0.00156877  0.79926527     0.06970
C1027       C  0.03451330  0.53318991  0.77960335    -0.15180
C1028       C  0.03663592  0.53803583  0.72402983    -0.15180
C1029       C  0.51962202  0.01139917  0.68748398     0.06970
C1030       C  0.50216777  0.97986028  0.70702028    -0.15180
H1031       H  0.48610771  0.95028598  0.77579321     0.10950
H1032       H  0.04646177  0.55413521  0.80712880     0.10950
H1033       H  0.04974329  0.56261332  0.70979379     0.10950
H1034       H  0.48851023  0.95900637  0.67959981     0.10950
C1035       C  0.03355375  0.48786027  0.21535301    -0.15180
C1036       C  0.00727925  0.48480279  0.18530840     0.06970
C1037       C  0.47929475  0.97911409  0.21316934    -0.15180
C1038       C  0.47782524  0.97709553  0.26933393    -0.15180
C1039       C  0.00416463  0.48042036  0.29944756     0.06970
C1040       C  0.03195813  0.48555611  0.27155151    -0.15180
H1041       H  0.05561562  0.49247263  0.19548287     0.10950
H1042       H  0.45871320  0.97700406  0.19169660     0.10950
H1043       H  0.45597708  0.97305969  0.28923849     0.10950
H1044       H  0.05273232  0.48822573  0.29324341     0.10950
C1045       C  0.34353812  0.87734275  0.92967499    -0.15180
C1046       C  0.34340206  0.84890537  0.93795379     0.06970
C1047       C  0.37133321  0.84835210  0.92565570    -0.15180
C1048       C  0.40036106  0.87703854  0.91203013    -0.15180
C1049       C  0.40185778  0.90665844  0.91065779     0.06970
C1050       C  0.37255756  0.90597683  0.91459119    -0.15180
H1051       H  0.32172377  0.87783108  0.93776203     0.10950
H1052       H  0.37150082  0.82653180  0.93098621     0.10950
H1053       H  0.42265532  0.87684827  0.90848596     0.10950
H1054       H  0.37289378  0.92817067  0.91168389     0.10950
C1055       C  0.09492097  0.62855144  0.07089422    -0.15180
C1056       C  0.09129547  0.59853524  0.07940075     0.06970
C1057       C  0.12022115  0.59833548  0.08637110    -0.15180
C1058       C  0.15169629  0.62653392  0.08036404    -0.15180
C1059       C  0.15534714  0.65597311  0.06678178     0.06970
C1060       C  0.12651550  0.65689634  0.06461920    -0.15180
H1061       H  0.07337256  0.62959199  0.06434433     0.10950
H1062       H  0.11835802  0.57546769  0.09156474     0.10950
H1063       H  0.17299043  0.62459181  0.08225933     0.10950
H1064       H  0.12814361  0.67906920  0.05429525     0.10950
C1065       C  0.37805888  0.96428356  0.00542315    -0.15180
C1066       C  0.40292616  0.49422627  0.02982749     0.06970
C1067       C  0.39697933  0.51907831  0.03513622    -0.15180
C1068       C  0.36808626  0.51483263  0.01341213    -0.15180
C1069       C  0.34410329  0.98583018  0.98535663     0.06970
C1070       C  0.34919627  0.96018544  0.98279871    -0.15180
H1071       H  0.38155684  0.94424617  0.00266906     0.10950
H1072       H  0.41535327  0.54238120  0.05354011     0.10950
H1073       H  0.36464561  0.53456319  0.01891566     0.10950
H1074       H  0.33082191  0.93698135  0.96416478     0.10950
C1075       C  0.12684201  0.03149554  0.96616133    -0.15180
C1076       C  0.10216997  0.99960062  0.94808528     0.06970
C1077       C  0.10626076  0.97406705  0.95791663    -0.15180
C1078       C  0.13327073  0.47988524  0.98802320    -0.15180
C1079       C  0.15755873  0.51164405  0.00717641     0.06970
C1080       C  0.15397455  0.53736180  0.99614813    -0.15180
H1081       H  0.12433602  0.05186919  0.95955756     0.10950
H1082       H  0.08772902  0.94940639  0.94492085     0.10950
H1083       H  0.13545305  0.45937823  0.99518557     0.10950
H1084       H  0.17251375  0.56202832  0.00928619     0.10950
C1085       C  0.04582848  0.90073663  0.01425650    -0.15180
C1086       C  0.01947791  0.90511195  0.00935250     0.06970
C1087       C  0.49079503  0.88063635  0.98134298    -0.15180
C1088       C  0.48770895  0.85221340  0.96141330    -0.15180
C1089       C  0.51280299  0.84651527  0.96966089     0.06970
C1090       C  0.04257614  0.87174137  0.99423897    -0.15180
H1091       H  0.06855456  0.91932761  0.03408815     0.10950
H1092       H  0.47008375  0.88311848  0.97481047     0.10950
H1093       H  0.46455351  0.83367312  0.94252112     0.10950
H1094       H  0.06279314  0.86853844  0.00021631     0.10950
C1095       C  0.46296311  0.58863639  0.97319616    -0.15180
C1096       C  0.49077947  0.58691404  0.96642549     0.06970
C1097       C  0.02180903  0.61388860  0.98281928    -0.15180
C1098       C  0.02492313  0.64162605  0.00691784    -0.15180
C1099       C  0.99708038  0.64328541  0.01467094     0.06970
C1100       C  0.46609175  0.61642557  0.99759352    -0.15180
H1101       H  0.43872104  0.56796684  0.96223123     0.10950
H1102       H  0.04367950  0.61303171  0.97843058     0.10950
H1103       H  0.04926860  0.66213782  0.01795847     0.10950
H1104       H  0.44423183  0.61690083  0.00302241     0.10950
O1105       O  0.95961098  0.02319042  0.06758275    -0.81970
O1106       O  0.49554039  0.43529789  0.01911465    -0.81990
O1107       O  0.94527490  0.46446839  0.90614508    -0.82000
O1108       O  0.53845349  0.00287412  0.10395195    -0.81940
O1109       O  0.95042076  0.43365058  0.96014644    -0.82070
O1110       O  0.48529750  0.98555381  0.09962372    -0.81990
O1111       O  0.54788548  0.46345563  0.03096270    -0.81970
O1112       O  0.94469861  0.48553367  0.00440042    -0.82010
C1113       C  0.93699819  0.00127261  0.03618364     1.07720
C1114       C  0.52110871  0.43558680  0.02632960     1.07600
C1115       C  0.93384063  0.43651824  0.92505446     1.07740
C1116       C  0.51022241  0.99047701  0.12622418     1.07620
O1117       O  0.53269116  0.05325495  0.08327009    -0.81970
O1118       O  0.99754256  0.46705330  0.87414174    -0.82050
O1119       O  0.96616404  0.03193886  0.92763384    -0.81980
O1120       O  0.56451904  0.01421808  0.95057734    -0.81960
O1121       O  0.54394359  0.46383596  0.93195595    -0.82020
O1122       O  0.00604520  0.05071020  0.98800466    -0.81980
O1123       O  0.56410418  0.05309452  0.02158495    -0.81940
O1124       O  0.01260435  0.51816499  0.88936019    -0.82010
Co1125     Co  0.49318001  0.01508228  0.04108702     1.51530
Co1126     Co  0.99664562  0.45123781  0.94852921     1.51690
Co1127     Co  0.98134297  0.50419665  0.94950318     1.51570
Co1128     Co  0.55230764  0.00827117  0.02545135     1.51470
O1129       O  0.00807440  0.99172542  0.99182802    -1.43910
C1130       C  0.56088689  0.06723176  0.06140407     1.07650
C1131       C  0.00941267  0.49575077  0.85752600     1.07740
C1132       C  0.98729390  0.05522067  0.95872794     1.07670
C1133       C  0.56913356  0.49268336  0.93582883     1.07650
O1134       O  0.52455279  0.97755186  0.38590651    -0.81970
O1135       O  0.99751522  0.05633133  0.53918633    -0.81990
O1136       O  0.92625222  0.45865170  0.45372485    -0.82000
O1137       O  0.53153356  0.05508071  0.45079265    -0.81940
O1138       O  0.95432492  0.50948645  0.47276826    -0.82070
O1139       O  0.56333939  0.03831877  0.42626297    -0.81990
O1140       O  0.55134594  0.08660542  0.54874358    -0.81970
O1141       O  0.97835417  0.47593869  0.38377799    -0.82010
C1142       C  0.50253942  0.97835922  0.35933653     1.07720
C1143       C  0.52442574  0.08462180  0.54277248     1.07600
C1144       C  0.92705481  0.48448078  0.46194313     1.07740
C1145       C  0.55545435  0.05924772  0.42373654     1.07620
O1146       O  0.56263161  0.00941037  0.53220507    -0.81970
O1147       O  0.93466726  0.45953448  0.55502967    -0.82050
O1148       O  0.98609366  0.42801679  0.43824416    -0.81980
O1149       O  0.53833413  0.03247635  0.60003751    -0.81960
O1150       O  0.98575365  0.50374287  0.61381387    -0.82020
O1151       O  0.52718175  0.45349985  0.49354368    -0.81980
O1152       O  0.58231406  0.05823919  0.51806460    -0.81940
O1153       O  0.94956319  0.42840062  0.51786410    -0.82010
Co1154     Co  0.54171716  0.99455223  0.46201293     1.51530
Co1155     Co  0.97150363  0.50619995  0.54122947     1.51690
Co1156     Co  0.96465139  0.45319752  0.45220438     1.51570
Co1157     Co  0.53341832  0.04257271  0.52441390     1.51470
O1158       O  0.50278153  0.99473349  0.49733592    -1.43910
C1159       C  0.58779848  0.03660602  0.52764121     1.07650
C1160       C  0.93088606  0.43180475  0.54858506     1.07740
C1161       C  0.50528245  0.42751102  0.47182156     1.07670
C1162       C  0.01463683  0.51611795  0.63097109     1.07650
O1163       O  0.55350284  0.24847789  0.96416816    -0.81970
O1164       O  0.97382209  0.28964512  0.96650487    -0.81750
O1165       O  0.00996957  0.24924945  0.90888630    -0.82000
O1166       O  0.55306410  0.32917364  0.07412999    -0.81940
O1167       O  0.95920586  0.23610255  0.90389531    -0.82070
O1168       O  0.56541027  0.29409093  0.04367184    -0.81990
O1169       O  0.02476596  0.30535871  0.97731058    -0.81970
O1170       O  0.52115547  0.20074069  0.92271126    -0.82010
C1171       C  0.55027939  0.22483540  0.93463658     1.07720
C1172       C  0.00404117  0.31223016  0.96558724     1.07600
C1173       C  0.98603235  0.24453698  0.88129049     1.07740
C1174       C  0.57396746  0.32336367  0.05430204     1.07620
O1175       O  0.52741249  0.24127383  0.11800402    -0.81970
O1176       O  0.92572738  0.19589882  0.99185861    -0.82050
O1177       O  0.98051856  0.18041817  0.01278677    -0.81980
O1178       O  0.98025087  0.29749965  0.06664279    -0.81960
O1179       O  0.94007273  0.24701728  0.05413815    -0.82020
O1180       O  0.52835845  0.19985102  0.04198041    -0.81980
O1181       O  0.50717936  0.27187235  0.12275181    -0.81940
O1182       O  0.95246089  0.18378289  0.93446294    -0.82010
Co1183     Co  0.53747922  0.24531114  0.04030242     1.51530
Co1184     Co  0.95218445  0.24198032  0.98123448     1.51690
Co1185     Co  0.99788732  0.21672961  0.96393455     1.51570
Co1186     Co  0.51616183  0.28706125  0.04919229     1.51470
O1187       O  0.99089585  0.24166603  0.01822904    -1.43910
C1188       C  0.51447621  0.25373221  0.14473764     1.07650
C1189       C  0.92860097  0.17499927  0.96645381     1.07740
C1190       C  0.50137709  0.17516867  0.02791934     1.07670
C1191       C  0.94948385  0.27537077  0.07020948     1.07650
O1192       O  0.52588000  0.21597800  0.58062609    -0.81970
O1193       O  0.01079288  0.30340034  0.49652651    -0.81990
O1194       O  0.57185687  0.28927555  0.46310157    -0.82000
O1195       O  0.97966244  0.25146007  0.62881011    -0.81940
O1196       O  0.53604087  0.30424910  0.47731926    -0.82070
O1197       O  0.97028146  0.20165888  0.62847013    -0.81990
O1198       O  0.97234513  0.28937765  0.55805902    -0.81970
O1199       O  0.54930942  0.26783296  0.56352259    -0.82010
C1200       C  0.55021784  0.24522964  0.58577612     1.07720
C1201       C  0.99474105  0.31041955  0.52916793     1.07600
C1202       C  0.56643675  0.31172131  0.47237877     1.07740
C1203       C  0.97758846  0.22822658  0.65312852     1.07620
O1204       O  0.93521973  0.17125708  0.52384568    -0.81970
O1205       O  0.50055286  0.27823897  0.38964365    -0.82050
O1206       O  0.54182456  0.22286760  0.48210560    -0.81980
O1207       O  0.92125769  0.23101997  0.50646845    -0.81960
O1208       O  0.95372475  0.26750973  0.45051006    -0.82020
O1209       O  0.99018227  0.18754237  0.47853465    -0.81980
O1210       O  0.92175081  0.19548060  0.58238084    -0.81940
O1211       O  0.51491802  0.24389555  0.40825895    -0.82010
Co1212     Co  0.97994645  0.19529339  0.55107184     1.51530
Co1213     Co  0.49095262  0.25999454  0.45762682     1.51690
Co1214     Co  0.53009322  0.25711726  0.48947073     1.51570
Co1215     Co  0.95174443  0.24219991  0.56679819     1.51470
O1216       O  0.98481616  0.23624992  0.52418916    -1.43910
C1217       C  0.91383134  0.17506278  0.54404217     1.07650
C1218       C  0.50792261  0.25837945  0.37333642     1.07740
C1219       C  0.51868272  0.19330986  0.47673896     1.07670
C1220       C  0.92526781  0.24930944  0.46930750     1.07650
O1221       O  0.71506183  0.04571682  0.03041686    -0.81970
O1222       O  0.74461861  0.44697466  0.02456302    -0.81990
O1223       O  0.68646897  0.44839008  0.96950244    -0.82000
O1224       O  0.74247608  0.99014228  0.09305628    -0.81940
O1225       O  0.71600074  0.43124421  0.93509244    -0.82070
O1226       O  0.76018506  0.04202202  0.09916593    -0.81990
O1227       O  0.78778510  0.47272958  0.07676764    -0.81970
O1228       O  0.69309088  0.49497869  0.02143397    -0.82010
C1229       C  0.68917794  0.01769537  0.02684079     1.07720
C1230       C  0.76407114  0.44578312  0.05746163     1.07600
C1231       C  0.69062791  0.42585676  0.96015962     1.07740
C1232       C  0.74947821  0.01489532  0.12129893     1.07620
O1233       O  0.80620734  0.06861991  0.00937632    -0.81970
O1234       O  0.76586109  0.49056018  0.88221688    -0.82050
O1235       O  0.71273438  0.03543298  0.92455913    -0.81980
O1236       O  0.80805918  0.00478902  0.98191905    -0.81960
O1237       O  0.78790572  0.45720448  0.94414112    -0.82020
O1238       O  0.76388292  0.06988296  0.94852623    -0.81980
O1239       O  0.81085984  0.03872840  0.06679894    -0.81940
O1240       O  0.71727211  0.48565081  0.87296355    -0.82010
Co1241     Co  0.76079601  0.05333875  0.02039085     1.51530
Co1242     Co  0.75836439  0.47358242  0.95601597     1.51690
Co1243     Co  0.70477440  0.49167727  0.94831541     1.51570
Co1244     Co  0.77305906  0.99649865  0.03578135     1.51470
O1245       O  0.74878557  0.50848225  0.98456830    -1.43910
C1246       C  0.82382373  0.06257957  0.03623569     1.07650
C1247       C  0.74325031  0.48864506  0.85271240     1.07740
C1248       C  0.73810818  0.06431109  0.92569560     1.07670
C1249       C  0.81253926  0.48235436  0.96730278     1.07650
O1250       O  0.75070209  0.05195239  0.51651092    -0.81970
O1251       O  0.78402086  0.45663842  0.52357667    -0.81990
O1252       O  0.75358189  0.51038282  0.59445455    -0.82000
O1253       O  0.81122612  0.05596090  0.47624254    -0.81940
O1254       O  0.73772765  0.45875934  0.59004366    -0.82070
O1255       O  0.77950422  0.06155773  0.42265621    -0.81990
O1256       O  0.81290274  0.00923030  0.52042662    -0.81970
O1257       O  0.70962895  0.02884532  0.57224710    -0.82010
C1258       C  0.73096838  0.05426450  0.54809954     1.07720
C1259       C  0.81183998  0.48337105  0.52609282     1.07600
C1260       C  0.74760631  0.48521361  0.61771675     1.07740
C1261       C  0.80442371  0.07396984  0.45324774     1.07620
O1262       O  0.73141732  0.99815740  0.38033894    -0.81970
O1263       O  0.69464048  0.43714614  0.49131581    -0.82050
O1264       O  0.69123166  0.49650957  0.47466709    -0.81980
O1265       O  0.79227204  0.47051668  0.42108444    -0.81960
O1266       O  0.73963319  0.43657423  0.43325292    -0.82020
O1267       O  0.71395589  0.03936112  0.42510460    -0.81980
O1268       O  0.78467962  0.01697835  0.37418424    -0.81940
O1269       O  0.68721259  0.46123511  0.55894964    -0.82010
Co1270     Co  0.73902679  0.02171058  0.44919760     1.51530
Co1271     Co  0.73910226  0.44946125  0.50861770     1.51690
Co1272     Co  0.72525351  0.50438549  0.53325051     1.51570
Co1273     Co  0.79812770  0.01281120  0.44985451     1.51470
O1274       O  0.75326044  0.49428468  0.48383257    -1.43910
C1275       C  0.75650851  0.00656621  0.35207846     1.07650
C1276       C  0.67634751  0.43674714  0.52703714     1.07740
C1277       C  0.68982068  0.01932501  0.45317601     1.07670
C1278       C  0.76646906  0.44223366  0.41467197     1.07650
O1279       O  0.68835061  0.20712058  0.02572478    -0.81970
O1280       O  0.74450602  0.30179261  0.05899046    -0.81990
O1281       O  0.76538193  0.22656450  0.11242885    -0.82000
O1282       O  0.69769910  0.25702266  0.95884123    -0.81940
O1283       O  0.74913942  0.26071927  0.11765877    -0.82070
O1284       O  0.67494962  0.20822601  0.92002722    -0.81990
O1285       O  0.75644252  0.31794423  0.97805464    -0.81970
O1286       O  0.71363386  0.18231771  0.04554624    -0.82010
C1287       C  0.68778952  0.18373132  0.04703019     1.07720
C1288       C  0.74971897  0.32236375  0.02514809     1.07600
C1289       C  0.75514232  0.24174056  0.13945371     1.07740
C1290       C  0.67260457  0.23189085  0.93469630     1.07620
O1291       O  0.73866891  0.24086679  0.88671096    -0.81970
O1292       O  0.81645236  0.28553979  0.08264603    -0.82050
O1293       O  0.76276438  0.20453382  0.95690983    -0.81980
O1294       O  0.79549338  0.29581302  0.93571698    -0.81960
O1295       O  0.80938238  0.32415359  0.01272551    -0.82020
O1296       O  0.71095822  0.18206677  0.94259859    -0.81980
O1297       O  0.74252704  0.28791334  0.88290938    -0.81940
O1298       O  0.81073228  0.24753866  0.02512965    -0.82010
Co1299     Co  0.71470388  0.22512504  0.96035414     1.51530
Co1300     Co  0.77801338  0.29048761  0.06469460     1.51690
Co1301     Co  0.76264116  0.21734088  0.03265616     1.51570
Co1302     Co  0.74791991  0.27489277  0.94959344     1.51470
O1303       O  0.75446957  0.25239939  0.00996183    -1.43910
C1304       C  0.74269611  0.26482797  0.85913840     1.07650
C1305       C  0.82823680  0.27066817  0.05851716     1.07740
C1306       C  0.73631162  0.18065170  0.93822007     1.07670
C1307       C  0.81522246  0.32111247  0.96365103     1.07650
O1308       O  0.69476089  0.19219111  0.43882052    -0.81970
O1309       O  0.73337874  0.30845524  0.46187735    -0.81990
O1310       O  0.67744902  0.23287696  0.58673051    -0.82000
O1311       O  0.75414076  0.26698606  0.39378242    -0.81940
O1312       O  0.68449984  0.26785921  0.52754993    -0.82070
O1313       O  0.75087174  0.22176311  0.39440558    -0.81990
O1314       O  0.78384786  0.32175586  0.44715906    -0.81970
O1315       O  0.66543566  0.18798474  0.50824835    -0.82010
C1316       C  0.66717373  0.18009553  0.46032822     1.07720
C1317       C  0.76083402  0.32683127  0.44014219     1.07600
C1318       C  0.66834691  0.25005307  0.56548884     1.07740
C1319       C  0.75151571  0.24329834  0.36816492     1.07620
O1320       O  0.78936932  0.24246330  0.48867535    -0.81970
O1321       O  0.73309032  0.28176905  0.61101838    -0.82050
O1322       O  0.72016292  0.18378867  0.54607550    -0.81980
O1323       O  0.79718282  0.29205269  0.53754183    -0.81960
O1324       O  0.78093728  0.32519805  0.54702402    -0.82020
O1325       O  0.74033790  0.18067045  0.46780406    -0.81980
O1326       O  0.81462690  0.28541707  0.43676617    -0.81940
O1327       O  0.74165317  0.24193886  0.60453891    -0.82010
Co1328     Co  0.73963976  0.21845305  0.47073817     1.51530
Co1329     Co  0.73249928  0.29279340  0.53401723     1.51690
Co1330     Co  0.70471917  0.21621351  0.55501703     1.51570
Co1331     Co  0.77433743  0.27720553  0.46613770     1.51470
O1332       O  0.73094848  0.25318903  0.49771636    -1.43910
C1333       C  0.81429547  0.26218287  0.45926029     1.07650
C1334       C  0.74246956  0.26450173  0.63152741     1.07740
C1335       C  0.73074452  0.17013636  0.51417871     1.07670
C1336       C  0.80301586  0.31920776  0.55393420     1.07650
C1337       C  0.74662793  0.24093589  0.77168233    -0.15180
C1338       C  0.74848520  0.26670416  0.80128355     0.06970
C1339       C  0.75372775  0.29403145  0.77462858    -0.15180
C1340       C  0.75418921  0.29436148  0.71899348    -0.15180
C1341       C  0.74968670  0.26751508  0.68915461     0.06970
C1342       C  0.74739095  0.24140028  0.71577823    -0.15180
H1343       H  0.74298545  0.21983184  0.79146327     0.10950
H1344       H  0.75588876  0.31459407  0.79657612     0.10950
H1345       H  0.75640070  0.31489895  0.69933698     0.10950
H1346       H  0.74399267  0.22039587  0.69348249     0.10950
C1347       C  0.75693259  0.26767908  0.22644480    -0.15180
C1348       C  0.75295901  0.24051777  0.19777150     0.06970
C1349       C  0.74776416  0.21367983  0.22532807    -0.15180
C1350       C  0.74644954  0.21411621  0.28128643    -0.15180
C1351       C  0.75066599  0.24151648  0.30967372     0.06970
C1352       C  0.75581865  0.26818959  0.28184505    -0.15180
H1353       H  0.76154725  0.28898038  0.20603571     0.10950
H1354       H  0.74466604  0.19259725  0.20375652     0.10950
H1355       H  0.74252537  0.19327223  0.30232916     0.10950
H1356       H  0.75951933  0.28969174  0.30285700     0.10950
C1357       C  0.73902938  0.38372431  0.38724183    -0.15180
C1358       C  0.76841715  0.41394114  0.39729642     0.06970
C1359       C  0.79757558  0.41452555  0.40596252    -0.15180
C1360       C  0.79620135  0.38548021  0.41440552    -0.15180
C1361       C  0.76570585  0.35555622  0.41252841     0.06970
C1362       C  0.73772492  0.35487209  0.39461056    -0.15180
H1363       H  0.71623882  0.38235612  0.37939356     0.10950
H1364       H  0.82077166  0.43749314  0.41208025     0.10950
H1365       H  0.81826969  0.38677974  0.42758221     0.10950
H1366       H  0.71398973  0.33211986  0.39157511     0.10950
C1367       C  0.75269227  0.10782739  0.50995752    -0.15180
C1368       C  0.73257566  0.08551575  0.54866565     0.06970
C1369       C  0.71237210  0.09228784  0.57962851    -0.15180
C1370       C  0.71238981  0.12075745  0.57083965    -0.15180
C1371       C  0.73243745  0.14231505  0.53083318     0.06970
C1372       C  0.75310585  0.13576267  0.50189851    -0.15180
H1373       H  0.76690814  0.10295027  0.48255271     0.10950
H1374       H  0.69584664  0.07518830  0.60870097     0.10950
H1375       H  0.69586279  0.12515294  0.59339957     0.10950
H1376       H  0.76874965  0.15156849  0.47069484     0.10950
C1377       C  0.73702530  0.00614365  0.76196368    -0.15180
C1378       C  0.74641448  0.48889312  0.79281866     0.06970
C1379       C  0.75715216  0.47055909  0.76548181    -0.15180
C1380       C  0.75741357  0.46879903  0.70870399    -0.15180
C1381       C  0.74812844  0.48635337  0.67804110     0.06970
C1382       C  0.73842332  0.00535741  0.70565627    -0.15180
H1383       H  0.72860737  0.02041663  0.78157573     0.10950
H1384       H  0.76437368  0.45675358  0.78805669     0.10950
H1385       H  0.76510071  0.45399396  0.68885732     0.10950
H1386       H  0.73089383  0.01906947  0.68351309     0.10950
C1387       C  0.76656622  0.99873812  0.20237445    -0.15180
C1388       C  0.75030821  0.01272450  0.18049711     0.06970
C1389       C  0.73568884  0.02423177  0.21548764    -0.15180
C1390       C  0.73683613  0.02118785  0.27127098    -0.15180
C1391       C  0.75366711  0.00771537  0.29303216     0.06970
C1392       C  0.76877156  0.99682083  0.25801728    -0.15180
H1393       H  0.77796696  0.48958621  0.17636649     0.10950
H1394       H  0.72306511  0.03510272  0.19970400     0.10950
H1395       H  0.72529453  0.03012750  0.29760410     0.10950
H1396       H  0.78170058  0.48624396  0.27377036     0.10950
C1397       C  0.78707262  0.41086174  0.06792109    -0.15180
C1398       C  0.75963687  0.41364641  0.06534837     0.06970
C1399       C  0.72832100  0.38515843  0.05539386    -0.15180
C1400       C  0.72477814  0.35515619  0.04391458    -0.15180
C1401       C  0.75255091  0.35304855  0.04210962     0.06970
C1402       C  0.78359540  0.38085568  0.05580966    -0.15180
H1403       H  0.81145840  0.43226851  0.07515536     0.10950
H1404       H  0.70669836  0.38645594  0.05348074     0.10950
H1405       H  0.70058774  0.33395552  0.03422557     0.10950
H1406       H  0.80533654  0.37959889  0.05521299     0.10950
C1407       C  0.70674596  0.09151211  0.90724315    -0.15180
C1408       C  0.73676031  0.09305750  0.91035299     0.06970
C1409       C  0.76610851  0.12404390  0.91112596    -0.15180
C1410       C  0.76552304  0.15235739  0.91518604    -0.15180
C1411       C  0.73557848  0.15082116  0.91915390     0.06970
C1412       C  0.70608072  0.12006004  0.91251689    -0.15180
H1413       H  0.68373642  0.06817448  0.90471052     0.10950
H1414       H  0.78978058  0.12647696  0.91269471     0.10950
H1415       H  0.78882112  0.17551461  0.91911813     0.10950
H1416       H  0.68253397  0.11785799  0.91477963     0.10950
C1417       C  0.85338341  0.14083723  0.54923294    -0.15180
C1418       C  0.88147135  0.15799152  0.51850169     0.06970
C1419       C  0.87934302  0.15392290  0.46217378    -0.15180
C1420       C  0.85033951  0.12910051  0.43746829    -0.15180
C1421       C  0.82385881  0.10818059  0.46936221     0.06970
C1422       C  0.82466665  0.11562860  0.52470973    -0.15180
H1423       H  0.85477759  0.14391705  0.59258879     0.10950
H1424       H  0.90107448  0.16776174  0.43795438     0.10950
H1425       H  0.85034054  0.12337902  0.39510150     0.10950
H1426       H  0.80483754  0.09920362  0.55044290     0.10950
C1427       C  0.62158882  0.34867780  0.51352333    -0.15180
C1428       C  0.59409141  0.34486117  0.48726514     0.06970
C1429       C  0.59207214  0.37220335  0.48142499    -0.15180
C1430       C  0.61723070  0.40287244  0.50204107    -0.15180
C1431       C  0.64433546  0.40629457  0.52959589     0.06970
C1432       C  0.64569498  0.37865174  0.53627380    -0.15180
H1433       H  0.62481538  0.32854752  0.51547948     0.10950
H1434       H  0.57161808  0.36996538  0.45939132     0.10950
H1435       H  0.61672283  0.42412908  0.49305161     0.10950
H1436       H  0.66740411  0.38101501  0.55405713     0.10950
C1437       C  0.86524416  0.22562495  0.47188758    -0.15180
C1438       C  0.89623685  0.25024328  0.45347601     0.06970
C1439       C  0.89912731  0.27743302  0.43007780    -0.15180
C1440       C  0.87237551  0.28146683  0.43089271    -0.15180
C1441       C  0.84242250  0.25808597  0.45436309     0.06970
C1442       C  0.83886365  0.22959881  0.47270976    -0.15180
H1443       H  0.86177454  0.20390117  0.48896338     0.10950
H1444       H  0.92249588  0.29647124  0.41452595     0.10950
H1445       H  0.87549065  0.30332277  0.41505550     0.10950
H1446       H  0.81585843  0.21060956  0.48933398     0.10950
C1447       C  0.61149824  0.27956396  0.59344828    -0.15180
C1448       C  0.58204953  0.25037737  0.60419463     0.06970
C1449       C  0.58360473  0.22317978  0.61615676    -0.15180
C1450       C  0.61258565  0.22362129  0.60749859    -0.15180
C1451       C  0.64024099  0.25118202  0.58660044     0.06970
C1452       C  0.64015047  0.27980277  0.58300482    -0.15180
H1453       H  0.61148750  0.30136218  0.58851934     0.10950
H1454       H  0.56151832  0.20036283  0.62620017     0.10950
H1455       H  0.61234800  0.20155024  0.61230817     0.10950
H1456       H  0.66181127  0.30200171  0.56972181     0.10950
C1457       C  0.50030277  0.22486505  0.74067623    -0.15180
C1458       C  0.98025437  0.23181727  0.71149523     0.06970
C1459       C  0.96411548  0.24504242  0.73792750    -0.15180
C1460       C  0.96720477  0.25052618  0.79318525    -0.15180
C1461       C  0.98710309  0.24356548  0.82271030     0.06970
C1462       C  0.50403623  0.23110316  0.79620932    -0.15180
H1463       H  0.51328383  0.21514581  0.72053618     0.10950
H1464       H  0.94866657  0.25072004  0.71572182     0.10950
H1465       H  0.95369830  0.25976721  0.81300603     0.10950
H1466       H  0.51905692  0.22502822  0.81866587     0.10950
C1467       C  0.52674558  0.23972335  0.23413037    -0.15180
C1468       C  0.50879591  0.24855618  0.20264855     0.06970
C1469       C  0.98765030  0.25616066  0.22783063    -0.15180
C1470       C  0.98638477  0.25753634  0.28336674    -0.15180
C1471       C  0.50616319  0.25127211  0.31520181     0.06970
C1472       C  0.52540215  0.24105103  0.29038515    -0.15180
H1473       H  0.54315138  0.23365054  0.21548040     0.10950
H1474       H  0.97305866  0.26246819  0.20460421     0.10950
H1475       H  0.97070686  0.26472890  0.30147861     0.10950
H1476       H  0.54066588  0.23590646  0.31426952     0.10950
C1477       C  0.90307104  0.13833436  0.04138907    -0.15180
C1478       C  0.90850521  0.14195464  0.98561061     0.06970
C1479       C  0.89243315  0.11475822  0.95080245    -0.15180
C1480       C  0.86766294  0.08516647  0.97091351    -0.15180
C1481       C  0.85879818  0.08296090  0.02551651     0.06970
C1482       C  0.87833941  0.10886591  0.06132172    -0.15180
H1483       H  0.91624185  0.15909107  0.06914849     0.10950
H1484       H  0.89677398  0.11702414  0.90802080     0.10950
H1485       H  0.85238555  0.06525566  0.94260968     0.10950
H1486       H  0.87163386  0.10778421  0.10311270     0.10950
C1487       C  0.62696077  0.37809977  0.06205780    -0.15180
C1488       C  0.60667096  0.34856186  0.03443029     0.06970
C1489       C  0.61773464  0.34219863  0.98556892    -0.15180
C1490       C  0.64744905  0.36593796  0.96255600    -0.15180
C1491       C  0.66687189  0.39622417  0.98878054     0.06970
C1492       C  0.65707959  0.40131269  0.04011292    -0.15180
H1493       H  0.61937856  0.38340876  0.09987814     0.10950
H1494       H  0.60225253  0.31943270  0.96334166     0.10950
H1495       H  0.65378409  0.36152043  0.92290397     0.10950
H1496       H  0.67173663  0.42463299  0.06143404     0.10950
C1497       C  0.92148912  0.30692239  0.06249322    -0.15180
C1498       C  0.92248715  0.28100593  0.08353994     0.06970
C1499       C  0.89291563  0.25469928  0.10352945    -0.15180
C1500       C  0.86296745  0.25272048  0.09805216    -0.15180
C1501       C  0.86141588  0.27722934  0.07328940     0.06970
C1502       C  0.89121192  0.30505974  0.05737896    -0.15180
H1503       H  0.94348079  0.32728717  0.04602642     0.10950
H1504       H  0.89245443  0.23410015  0.11952470     0.10950
H1505       H  0.84052521  0.23100334  0.11068812     0.10950
H1506       H  0.89079674  0.32429356  0.03776297     0.10950
C1507       C  0.58134596  0.19802094  0.91344431    -0.15180
C1508       C  0.58082386  0.22635474  0.91984207     0.06970
C1509       C  0.61100846  0.25659318  0.92506338    -0.15180
C1510       C  0.64076959  0.25836268  0.92889660    -0.15180
C1511       C  0.64119385  0.22995045  0.92654775     0.06970
C1512       C  0.61135309  0.19980860  0.91671890    -0.15180
H1513       H  0.55855059  0.17443285  0.90966299     0.10950
H1514       H  0.61150897  0.27893172  0.92954768     0.10950
H1515       H  0.66337484  0.28194293  0.93515198     0.10950
H1516       H  0.61102054  0.17747873  0.91414159     0.10950
C1517       C  0.89558155  0.37129678  0.55650898    -0.15180
C1518       C  0.90097970  0.40217823  0.56858192     0.06970
C1519       C  0.87471482  0.40389148  0.58894762    -0.15180
C1520       C  0.84284946  0.37594187  0.58956552    -0.15180
C1521       C  0.83680404  0.34572552  0.57071479     0.06970
C1522       C  0.86380130  0.34331675  0.55765075    -0.15180
H1523       H  0.91536002  0.36899387  0.54158369     0.10950
H1524       H  0.87806229  0.42718130  0.59929397     0.10950
H1525       H  0.82259092  0.37849601  0.60050405     0.10950
H1526       H  0.86005791  0.32037424  0.54334529     0.10950
C1527       C  0.61142794  0.09935948  0.38991932    -0.15180
C1528       C  0.58047438  0.09254828  0.40640439     0.06970
C1529       C  0.57810440  0.11872991  0.42500509    -0.15180
C1530       C  0.60661195  0.14890214  0.43892345    -0.15180
C1531       C  0.63767356  0.15376691  0.43104896     0.06970
C1532       C  0.63985764  0.12983038  0.40210737    -0.15180
H1533       H  0.61419548  0.08004623  0.37429747     0.10950
H1534       H  0.55442753  0.11469527  0.43525763     0.10950
H1535       H  0.60452718  0.16762324  0.45904735     0.10950
H1536       H  0.66364816  0.13319931  0.39465498     0.10950
C1537       C  0.86928276  0.95497267  0.49499503    -0.15180
C1538       C  0.89681556  0.48355013  0.47572430     0.06970
C1539       C  0.89728971  0.51243744  0.47851959    -0.15180
C1540       C  0.87054542  0.51270440  0.49913142    -0.15180
C1541       C  0.84255839  0.48402851  0.51751527     0.06970
C1542       C  0.84251155  0.95526297  0.51619902    -0.15180
H1543       H  0.86856338  0.93245108  0.49425971     0.10950
H1544       H  0.91844811  0.53489797  0.46483033     0.10950
H1545       H  0.87137325  0.53528514  0.49868781     0.10950
H1546       H  0.82119664  0.93271272  0.52923863     0.10950
C1547       C  0.64149435  0.05931099  0.47930439    -0.15180
C1548       C  0.61858368  0.03809996  0.51655421     0.06970
C1549       C  0.62001915  0.01164788  0.53271321    -0.15180
C1550       C  0.64182366  0.00485021  0.50933671    -0.15180
C1551       C  0.66397233  0.02503748  0.47050042     0.06970
C1552       C  0.66428537  0.05292875  0.45661010    -0.15180
H1553       H  0.64080972  0.07978874  0.46609563     0.10950
H1554       H  0.60264718  0.99479274  0.56133071     0.10950
H1555       H  0.64149858  0.98377258  0.52247540     0.10950
H1556       H  0.68200890  0.06965825  0.42833077     0.10950
C1557       C  0.52997915  0.39900429  0.51049471    -0.15180
C1558       C  0.00251215  0.39748334  0.48738785     0.06970
C1559       C  0.97203177  0.36791852  0.48517440    -0.15180
C1560       C  0.96931793  0.34018057  0.50455708    -0.15180
C1561       C  0.99717998  0.34128521  0.52396490     0.06970
C1562       C  0.52727292  0.37095319  0.52854319    -0.15180
H1563       H  0.55362481  0.42183588  0.51412828     0.10950
H1564       H  0.95034531  0.36636458  0.46924720     0.10950
H1565       H  0.94566993  0.31747758  0.50267313     0.10950
H1566       H  0.54847940  0.37227408  0.54582147     0.10950
C1567       C  0.99499808  0.10856998  0.50532966    -0.15180
C1568       C  0.52366995  0.11352738  0.52948558     0.06970
C1569       C  0.55223896  0.14513097  0.53145035    -0.15180
C1570       C  0.55190929  0.17114866  0.50966600    -0.15180
C1571       C  0.52286795  0.16604075  0.48666626     0.06970
C1572       C  0.99469185  0.13429409  0.48389387    -0.15180
H1573       H  0.97273433  0.08453709  0.50182592     0.10950
H1574       H  0.57494059  0.14955042  0.54865643     0.10950
H1575       H  0.57397154  0.19531347  0.51207644     0.10950
H1576       H  0.97179539  0.12940863  0.46665809     0.10950
C1577       C  0.00074223  0.47495235  0.76216836    -0.15180
C1578       C  0.01590816  0.50154960  0.79927515     0.06970
C1579       C  0.53451660  0.03320855  0.77959050    -0.15180
C1580       C  0.53664696  0.03805263  0.72401514    -0.15180
C1581       C  0.01960145  0.51138374  0.68749925     0.06970
C1582       C  0.00214694  0.47984403  0.70703162    -0.15180
H1583       H  0.98609353  0.45026764  0.77580170     0.10950
H1584       H  0.54645917  0.05415474  0.80711437     0.10950
H1585       H  0.54975324  0.06262955  0.70977691     0.10950
H1586       H  0.98848311  0.45899151  0.67961064     0.10950
C1587       C  0.53358377  0.98785721  0.21533092    -0.15180
C1588       C  0.50730609  0.98479652  0.18529103     0.06970
C1589       C  0.97926861  0.47912588  0.21318323    -0.15180
C1590       C  0.97779623  0.47710770  0.26934851    -0.15180
C1591       C  0.50419727  0.98041314  0.29942894     0.06970
C1592       C  0.53199098  0.98555250  0.27152941    -0.15180
H1593       H  0.55564618  0.99247362  0.19545735     0.10950
H1594       H  0.95868958  0.47701887  0.19170692     0.10950
H1595       H  0.95594856  0.47307523  0.28925022     0.10950
H1596       H  0.55276763  0.98822568  0.29321863     0.10950
C1597       C  0.84353970  0.37732412  0.92964138    -0.15180
C1598       C  0.84340773  0.34889007  0.93793084     0.06970
C1599       C  0.87133887  0.34833681  0.92563453    -0.15180
C1600       C  0.90036501  0.37702272  0.91200477    -0.15180
C1601       C  0.90185849  0.40664062  0.91062823     0.06970
C1602       C  0.87255716  0.40595725  0.91455284    -0.15180
H1603       H  0.82172453  0.37781150  0.93772643     0.10950
H1604       H  0.87150838  0.32651816  0.93097269     0.10950
H1605       H  0.92266065  0.37683467  0.90846560     0.10950
H1606       H  0.87289104  0.42814956  0.91163772     0.10950
C1607       C  0.59494415  0.12855307  0.07091852    -0.15180
C1608       C  0.59131915  0.09853597  0.07941202     0.06970
C1609       C  0.62024435  0.09833491  0.08637731    -0.15180
C1610       C  0.65171956  0.12653460  0.08037929    -0.15180
C1611       C  0.65537025  0.15597575  0.06681126     0.06970
C1612       C  0.62653864  0.15689917  0.06465388    -0.15180
H1613       H  0.57339564  0.12959387  0.06436881     0.10950
H1614       H  0.61838094  0.07546611  0.09156018     0.10950
H1615       H  0.67301389  0.12459252  0.08226936     0.10950
H1616       H  0.62816687  0.17907348  0.05434006     0.10950
C1617       C  0.87804146  0.46429887  0.00533475    -0.15180
C1618       C  0.90294163  0.99422100  0.02988874     0.06970
C1619       C  0.89698627  0.01906824  0.03517624    -0.15180
C1620       C  0.86808687  0.01480802  0.01345045    -0.15180
C1621       C  0.84410091  0.48586623  0.98529386     0.06970
C1622       C  0.84918573  0.46021610  0.98270858    -0.15180
H1623       H  0.88153125  0.44425669  0.00256968     0.10950
H1624       H  0.91535889  0.04237799  0.05356133     0.10950
H1625       H  0.86463927  0.03453749  0.01893361     0.10950
H1626       H  0.83080907  0.43701856  0.96405834     0.10950
C1627       C  0.62682559  0.53149759  0.96624299    -0.15180
C1628       C  0.60216637  0.49960571  0.94813164     0.06970
C1629       C  0.60626844  0.47407657  0.95793547    -0.15180
C1630       C  0.63326917  0.97987799  0.98798916    -0.15180
C1631       C  0.65757414  0.01164177  0.00709739     0.06970
C1632       C  0.65399680  0.03736159  0.99605334    -0.15180
H1633       H  0.62431299  0.55186891  0.95965596     0.10950
H1634       H  0.58774893  0.44941927  0.94490498     0.10950
H1635       H  0.63544343  0.95936796  0.99517227     0.10950
H1636       H  0.67254655  0.06203025  0.00916280     0.10950
C1637       C  0.54581648  0.40074084  0.01418210    -0.15180
C1638       C  0.51946105  0.40511226  0.00933441     0.06970
C1639       C  0.99077206  0.38064084  0.98133267    -0.15180
C1640       C  0.98768360  0.35222293  0.96136759    -0.15180
C1641       C  0.01278205  0.34652609  0.96956995     0.06970
C1642       C  0.54256318  0.37175336  0.99411950    -0.15180
H1643       H  0.56854841  0.41932980  0.03400159     0.10950
H1644       H  0.97005657  0.38312094  0.97483704     0.10950
H1645       H  0.96452285  0.33368382  0.94248877     0.10950
H1646       H  0.56278872  0.36855820  0.00004141     0.10950
C1647       C  0.96298599  0.08866775  0.97327412    -0.15180
C1648       C  0.99080035  0.08694446  0.96647537     0.06970
C1649       C  0.52183664  0.11392781  0.98283043    -0.15180
C1650       C  0.52495988  0.14167759  0.00690122    -0.15180
C1651       C  0.49711800  0.14333568  0.01468883     0.06970
C1652       C  0.96612202  0.11646377  0.99765884    -0.15180
H1653       H  0.93874027  0.06799446  0.96233839     0.10950
H1654       H  0.54370597  0.11307061  0.97842332     0.10950
H1655       H  0.54930951  0.16219706  0.01789874     0.10950
H1656       H  0.94426229  0.11693730  0.00311285     0.10950
O1657       O  0.95958750  0.52318325  0.06754562    -0.81970
O1658       O  0.49555196  0.93529715  0.01908505    -0.81990
O1659       O  0.94527844  0.96448764  0.90616326    -0.82000
O1660       O  0.53843027  0.50287156  0.10396997    -0.81940
O1661       O  0.95043061  0.93366652  0.96014808    -0.82070
O1662       O  0.48527486  0.48555421  0.09963324    -0.81990
O1663       O  0.54789912  0.96346052  0.03093289    -0.81970
O1664       O  0.94472035  0.98554829  0.00442310    -0.82010
C1665       C  0.93697650  0.50126520  0.03614450     1.07720
C1666       C  0.52112300  0.93559071  0.02630743     1.07600
C1667       C  0.93384503  0.93653609  0.92506933     1.07740
C1668       C  0.51019859  0.49047877  0.12623948     1.07620
O1669       O  0.53266614  0.55325290  0.08325781    -0.81970
O1670       O  0.99754398  0.96707134  0.87413165    -0.82050
O1671       O  0.96614775  0.53191040  0.92759050    -0.81980
O1672       O  0.56450549  0.51421044  0.95059900    -0.81960
O1673       O  0.54394543  0.96384163  0.93192354    -0.82020
O1674       O  0.00602592  0.55068720  0.98797117    -0.81980
O1675       O  0.56408418  0.55308653  0.02158985    -0.81940
O1676       O  0.01260860  0.01818393  0.88935448    -0.82010
Co1677     Co  0.49315926  0.51507180  0.04107716     1.51530
Co1678     Co  0.99665302  0.95124951  0.94851216     1.51690
Co1679     Co  0.98135713  0.00421593  0.94951415     1.51570
Co1680     Co  0.55229012  0.50826477  0.02547113     1.51470
O1681       O  0.00805754  0.49171207  0.99183831    -1.43910
C1682       C  0.56086386  0.56722808  0.06139866     1.07650
C1683       C  0.00941477  0.99576939  0.85751745     1.07740
C1684       C  0.98727552  0.55519354  0.95868407     1.07670
C1685       C  0.56913912  0.99268680  0.93579663     1.07650
O1686       O  0.52451790  0.47755517  0.38592430    -0.81970
O1687       O  0.99748899  0.55632737  0.53922726    -0.81990
O1688       O  0.92628653  0.95865168  0.45369066    -0.82000
O1689       O  0.53150893  0.55508617  0.45082561    -0.81940
O1690       O  0.95436295  0.00948669  0.47272386    -0.82070
O1691       O  0.56331006  0.53831974  0.42628931    -0.81990
O1692       O  0.55132062  0.58659911  0.54878566    -0.81970
O1693       O  0.97839071  0.97593688  0.38375846    -0.82010
C1694       C  0.50250464  0.47836346  0.35935556     1.07720
C1695       C  0.52440102  0.58461674  0.54281679     1.07600
C1696       C  0.92709157  0.98448216  0.46190318     1.07740
C1697       C  0.55542973  0.55925257  0.42376983     1.07620
O1698       O  0.56259838  0.50940310  0.53222359    -0.81970
O1699       O  0.93469676  0.95953922  0.55499707    -0.82050
O1700       O  0.98612972  0.92801845  0.43823671    -0.81980
O1701       O  0.53830663  0.53246706  0.60005852    -0.81960
O1702       O  0.98578002  0.00375256  0.61378587    -0.82020
O1703       O  0.52721881  0.95350499  0.49353250    -0.81980
O1704       O  0.58228448  0.55823398  0.51809291    -0.81940
O1705       O  0.94959085  0.92840083  0.51784415    -0.82010
Co1706     Co  0.54168337  0.49455016  0.46203149     1.51530
Co1707     Co  0.97153428  0.00620417  0.54119440     1.51690
Co1708     Co  0.96468481  0.95319701  0.45218406     1.51570
Co1709     Co  0.53339009  0.54256954  0.52444215     1.51470
O1710       O  0.50274941  0.49473263  0.49735599    -1.43910
C1711       C  0.58776637  0.53659878  0.52766543     1.07650
C1712       C  0.93091204  0.93180768  0.54855649     1.07740
C1713       C  0.50531609  0.92751443  0.47181997     1.07670
C1714       C  0.01466240  0.01612951  0.63094950     1.07650
O1715       O  0.55353340  0.74844419  0.96425189    -0.81970
O1716       O  0.97384182  0.78963475  0.96657568    -0.81750
O1717       O  0.00998307  0.74924424  0.90895076    -0.82000
O1718       O  0.55303687  0.82910621  0.07430215    -0.81940
O1719       O  0.95922073  0.73610180  0.90393868    -0.82070
O1720       O  0.56538811  0.79402084  0.04390104    -0.81990
O1721       O  0.02478525  0.80534855  0.97743617    -0.81970
O1722       O  0.52113975  0.70072288  0.92274228    -0.82010
C1723       C  0.55027339  0.72480543  0.93464580     1.07720
C1724       C  0.00406270  0.81221969  0.96568924     1.07600
C1725       C  0.98605086  0.74453863  0.88134502     1.07740
C1726       C  0.57395954  0.82329536  0.05456635     1.07620
O1727       O  0.52731999  0.74115563  0.11805910    -0.81970
O1728       O  0.92571297  0.69588077  0.99186744    -0.82050
O1729       O  0.98049487  0.68038079  0.01280193    -0.81980
O1730       O  0.98023188  0.79746073  0.06671930    -0.81960
O1731       O  0.94005449  0.74698411  0.05417307    -0.82020
O1732       O  0.52832694  0.69978798  0.04199711    -0.81980
O1733       O  0.50712438  0.77178861  0.12282360    -0.81940
O1734       O  0.95245773  0.68377275  0.93448341    -0.82010
Co1735     Co  0.53744460  0.74524296  0.04037796     1.51530
Co1736     Co  0.95218323  0.74196381  0.98127354     1.51690
Co1737     Co  0.99788240  0.71670913  0.96397800     1.51570
Co1738     Co  0.51614097  0.78701328  0.04929041     1.51470
O1739       O  0.99088108  0.74163164  0.01827279    -1.43910
C1740       C  0.51439500  0.75362513  0.14479617     1.07650
C1741       C  0.92859137  0.67498479  0.96646247     1.07740
C1742       C  0.50134393  0.67511585  0.02792394     1.07670
C1743       C  0.94946178  0.77533444  0.07025485     1.07650
O1744       O  0.52588716  0.71598787  0.58066866    -0.81970
O1745       O  0.01079798  0.80339960  0.49656931    -0.81990
O1746       O  0.57185047  0.78926563  0.46312374    -0.82000
O1747       O  0.97966480  0.75146208  0.62886336    -0.81940
O1748       O  0.53604460  0.80424929  0.47735346    -0.82070
O1749       O  0.97028754  0.70166219  0.62852123    -0.81990
O1750       O  0.97235253  0.78938138  0.55810660    -0.81970
O1751       O  0.54931002  0.76784096  0.56355579    -0.82010
C1752       C  0.55022390  0.74524126  0.58581035     1.07720
C1753       C  0.99474927  0.81042122  0.52921358     1.07600
C1754       C  0.56643817  0.81171629  0.47240202     1.07740
C1755       C  0.97759508  0.72822980  0.65318015     1.07620
O1756       O  0.93522053  0.67125750  0.52390265    -0.81970
O1757       O  0.50055177  0.77823114  0.38968164    -0.82050
O1758       O  0.54182092  0.72286678  0.48214973    -0.81980
O1759       O  0.92125943  0.73102503  0.50652066    -0.81960
O1760       O  0.95372750  0.76751120  0.45055659    -0.82020
O1761       O  0.99017881  0.68754587  0.47858015    -0.81980
O1762       O  0.92175253  0.69548407  0.58243337    -0.81940
O1763       O  0.51490106  0.74387724  0.40831043    -0.82010
Co1764     Co  0.97994929  0.69529708  0.55112152     1.51530
Co1765     Co  0.49095330  0.75999337  0.45767317     1.51690
Co1766     Co  0.53008856  0.75711485  0.48951022     1.51570
Co1767     Co  0.95174689  0.74220333  0.56684977     1.51470
O1768       O  0.98481613  0.73625147  0.52423935    -1.43910
C1769       C  0.91383253  0.67506485  0.54409642     1.07650
C1770       C  0.50790503  0.75835730  0.37338307     1.07740
C1771       C  0.51867760  0.69331045  0.47678044     1.07670
C1772       C  0.92527040  0.74931225  0.46935478     1.07650
O1773       O  0.71503728  0.54572351  0.03052076    -0.81970
O1774       O  0.74459156  0.94697208  0.02465890    -0.81990
O1775       O  0.68643719  0.94841157  0.96920599    -0.82000
O1776       O  0.74246781  0.49013393  0.09311791    -0.81940
O1777       O  0.71596931  0.93113028  0.93533655    -0.82070
O1778       O  0.76015976  0.54201300  0.09924973    -0.81990
O1779       O  0.78779187  0.97272915  0.07677093    -0.81970
O1780       O  0.69310979  0.99497338  0.02124858    -0.82010
C1781       C  0.68915518  0.51770120  0.02697278     1.07720
C1782       C  0.76405487  0.94577859  0.05752408     1.07600
C1783       C  0.69059086  0.92584616  0.96025940     1.07740
C1784       C  0.74946160  0.51488288  0.12137107     1.07620
O1785       O  0.80617873  0.56863092  0.00945642    -0.81970
O1786       O  0.76582592  0.99039137  0.88215611    -0.82050
O1787       O  0.71267587  0.53538941  0.92467183    -0.81980
O1788       O  0.80805355  0.50482312  0.98195647    -0.81960
O1789       O  0.78788882  0.95712592  0.94427779    -0.82020
O1790       O  0.76383100  0.56986876  0.94861216    -0.81980
O1791       O  0.81084193  0.53873408  0.06685538    -0.81940
O1792       O  0.71735161  0.98571794  0.87281164    -0.82010
Co1793     Co  0.76076729  0.55334264  0.02048113     1.51530
Co1794     Co  0.75834065  0.97350804  0.95604031     1.51690
Co1795     Co  0.70481973  0.99171306  0.94813144     1.51570
Co1796     Co  0.77304460  0.49650387  0.03582941     1.51470
O1797       O  0.74880796  0.00847056  0.98447869    -1.43910
C1798       C  0.82380008  0.56258817  0.03629644     1.07650
C1799       C  0.74328735  0.98859535  0.85261620     1.07740
C1800       C  0.73804782  0.56427445  0.92577629     1.07670
C1801       C  0.81253764  0.98230418  0.96734970     1.07650
O1802       O  0.75068058  0.55195754  0.51658711    -0.81970
O1803       O  0.78405280  0.95663684  0.52347557    -0.81990
O1804       O  0.75363460  0.01038134  0.59436859    -0.82000
O1805       O  0.81120181  0.55596395  0.47632702    -0.81940
O1806       O  0.73777108  0.95875545  0.58995748    -0.82070
O1807       O  0.77948808  0.56156588  0.42273089    -0.81990
O1808       O  0.81286834  0.50923043  0.52051741    -0.81970
O1809       O  0.70958885  0.52885110  0.57228902    -0.82010
C1810       C  0.73094058  0.55427139  0.54815687     1.07720
C1811       C  0.81187147  0.98336954  0.52600675     1.07600
C1812       C  0.74766458  0.98521323  0.61762910     1.07740
C1813       C  0.80440643  0.57397564  0.45332388     1.07620
O1814       O  0.73139915  0.49816894  0.38041147    -0.81970
O1815       O  0.69466847  0.93714174  0.49124812    -0.82050
O1816       O  0.69125543  0.99650492  0.47462609    -0.81980
O1817       O  0.79229825  0.97051566  0.42099484    -0.81960
O1818       O  0.73965859  0.93657628  0.43315989    -0.82020
O1819       O  0.71394269  0.53937577  0.42516985    -0.81980
O1820       O  0.78466015  0.51698158  0.37426452    -0.81940
O1821       O  0.68725556  0.96123142  0.55889827    -0.82010
Co1822     Co  0.73900814  0.52172056  0.44927052     1.51530
Co1823     Co  0.73913323  0.94945797  0.50852960     1.51690
Co1824     Co  0.72529049  0.00438268  0.53318850     1.51570
Co1825     Co  0.79810161  0.51281318  0.44994029     1.51470
O1826       O  0.75328830  0.99428117  0.48375325    -1.43910
C1827       C  0.75649077  0.50657324  0.35215618     1.07650
C1828       C  0.67638308  0.93674301  0.52698397     1.07740
C1829       C  0.68980051  0.51933262  0.45322197     1.07670
C1830       C  0.76649377  0.94223394  0.41457856     1.07650
O1831       O  0.68833063  0.70711541  0.02568566    -0.81970
O1832       O  0.74448616  0.80178401  0.05899168    -0.81990
O1833       O  0.76536243  0.72655039  0.11240477    -0.82000
O1834       O  0.69767756  0.75701830  0.95878564    -0.81940
O1835       O  0.74911564  0.76070052  0.11763885    -0.82070
O1836       O  0.67494455  0.70822047  0.91998361    -0.81990
O1837       O  0.75642019  0.81794296  0.97805811    -0.81970
O1838       O  0.71361090  0.68231083  0.04551922    -0.82010
C1839       C  0.68776747  0.68372631  0.04699689     1.07720
C1840       C  0.74969446  0.82235684  0.02515464     1.07600
C1841       C  0.75512223  0.74172445  0.13943283     1.07740
C1842       C  0.67259001  0.73188105  0.93463511     1.07620
O1843       O  0.73866659  0.74087669  0.88668741    -0.81970
O1844       O  0.81643424  0.78552542  0.08262845    -0.82050
O1845       O  0.76274235  0.70451539  0.95688491    -0.81980
O1846       O  0.79548533  0.79582592  0.93571728    -0.81960
O1847       O  0.80936605  0.82415489  0.01273492    -0.82020
O1848       O  0.71093943  0.68206221  0.94256849    -0.81980
O1849       O  0.74252516  0.78792524  0.88289295    -0.81940
O1850       O  0.81071244  0.74752441  0.02510846    -0.82010
Co1851     Co  0.71469212  0.72512431  0.96032300     1.51530
Co1852     Co  0.77799405  0.79047723  0.06468624     1.51690
Co1853     Co  0.76261988  0.71732951  0.03263079     1.51570
Co1854     Co  0.74790691  0.77489717  0.94957523     1.51470
O1855       O  0.75445248  0.75239447  0.00993936    -1.43910
C1856       C  0.74269767  0.76484189  0.85911975     1.07650
C1857       C  0.82821731  0.77065115  0.05850109     1.07740
C1858       C  0.73628628  0.68063601  0.93819688     1.07670
C1859       C  0.81521143  0.82112245  0.96366040     1.07650
O1860       O  0.69474911  0.69219829  0.43882229    -0.81970
O1861       O  0.73339111  0.80846703  0.46184423    -0.81990
O1862       O  0.67746467  0.73290753  0.58672609    -0.82000
O1863       O  0.75413961  0.76698206  0.39376153    -0.81940
O1864       O  0.68451293  0.76788569  0.52753818    -0.82070
O1865       O  0.75085851  0.72175372  0.39439192    -0.81990
O1866       O  0.78385621  0.82175522  0.44711964    -0.81970
O1867       O  0.66543657  0.68800077  0.50826385    -0.82010
C1868       C  0.66716582  0.68010543  0.46034336     1.07720
C1869       C  0.76084525  0.82683422  0.44009882     1.07600
C1870       C  0.66836125  0.75008134  0.56548031     1.07740
C1871       C  0.75150810  0.74329046  0.36814732     1.07620
O1872       O  0.78936288  0.74245785  0.48865747    -0.81970
O1873       O  0.73310917  0.78179868  0.61099756    -0.82050
O1874       O  0.72016485  0.68380756  0.54608463    -0.81980
O1875       O  0.79719167  0.79206028  0.53751385    -0.81960
O1876       O  0.78095390  0.82521278  0.54698302    -0.82020
O1877       O  0.74031883  0.68066653  0.46780513    -0.81980
O1878       O  0.81462527  0.78540804  0.43674051    -0.81940
O1879       O  0.74166832  0.74196638  0.60452316    -0.82010
Co1880     Co  0.73963198  0.71845555  0.47072720     1.51530
Co1881     Co  0.73251373  0.79281343  0.53399085     1.51690
Co1882     Co  0.70472723  0.71623573  0.55501639     1.51570
Co1883     Co  0.77434019  0.77720597  0.46611454     1.51470
O1884       O  0.73095300  0.75320102  0.49770068    -1.43910
C1885       C  0.81429151  0.76217526  0.45924435     1.07650
C1886       C  0.74248677  0.76453078  0.63150969     1.07740
C1887       C  0.73073456  0.67014446  0.51418864     1.07670
C1888       C  0.80302968  0.81921894  0.55389661     1.07650
C1889       C  0.74664276  0.74096044  0.77166207    -0.15180
C1890       C  0.74849352  0.76672441  0.80126649     0.06970
C1891       C  0.75373439  0.79405238  0.77461530    -0.15180
C1892       C  0.75419928  0.79438619  0.71898015    -0.15180
C1893       C  0.74970244  0.76754320  0.68913775     0.06970
C1894       C  0.74740962  0.74142882  0.71575847    -0.15180
H1895       H  0.74300189  0.71985614  0.79143975     0.10950
H1896       H  0.75589046  0.81461201  0.79656547     0.10950
H1897       H  0.75640832  0.81492329  0.69932626     0.10950
H1898       H  0.74401601  0.72042705  0.69346048     0.10950
C1899       C  0.75692206  0.76766721  0.22642435    -0.15180
C1900       C  0.75294376  0.74050378  0.19775173     0.06970
C1901       C  0.74774821  0.71366591  0.22530986    -0.15180
C1902       C  0.74643657  0.71410424  0.28126901    -0.15180
C1903       C  0.75065686  0.74150643  0.30965545     0.06970
C1904       C  0.75581126  0.76817974  0.28182494    -0.15180
H1905       H  0.76153755  0.78896849  0.20601413     0.10950
H1906       H  0.74464667  0.69258172  0.20373888     0.10950
H1907       H  0.74251134  0.69326021  0.30231289     0.10950
H1908       H  0.75951508  0.78968349  0.30283565     0.10950
C1909       C  0.73905037  0.88372404  0.38715497    -0.15180
C1910       C  0.76843969  0.91394009  0.39720583     0.06970
C1911       C  0.79759636  0.91452228  0.40587831    -0.15180
C1912       C  0.79621826  0.88547647  0.41433487    -0.15180
C1913       C  0.76572068  0.85555467  0.41246609     0.06970
C1914       C  0.73774195  0.85487124  0.39453879    -0.15180
H1915       H  0.71626126  0.88235770  0.37930149     0.10950
H1916       H  0.82079363  0.93748912  0.41199378     0.10950
H1917       H  0.81828499  0.88677488  0.42751788     0.10950
H1918       H  0.71400545  0.83212020  0.39150908     0.10950
C1919       C  0.75267876  0.60783472  0.51001008    -0.15180
C1920       C  0.73255349  0.58552455  0.54871364     0.06970
C1921       C  0.71234696  0.59229934  0.57966111    -0.15180
C1922       C  0.71236975  0.62077010  0.57086073    -0.15180
C1923       C  0.73242470  0.64232502  0.53085717     0.06970
C1924       C  0.75309629  0.63577069  0.50193865    -0.15180
H1925       H  0.76689762  0.60295525  0.48261669     0.10950
H1926       H  0.69581535  0.57520087  0.60872935     0.10950
H1927       H  0.69584024  0.62516795  0.59340751     0.10950
H1928       H  0.76874514  0.65157513  0.47073774     0.10950
C1929       C  0.73680804  0.50604422  0.76202899    -0.15180
C1930       C  0.74649143  0.98887063  0.79273082     0.06970
C1931       C  0.75710542  0.97043728  0.76537437    -0.15180
C1932       C  0.75737154  0.96869417  0.70859549    -0.15180
C1933       C  0.74821536  0.98636034  0.67795412     0.06970
C1934       C  0.73820184  0.50524615  0.70571923    -0.15180
H1935       H  0.72829256  0.52023791  0.78162469     0.10950
H1936       H  0.76421681  0.95653802  0.78793231     0.10950
H1937       H  0.76495208  0.95380595  0.68873125     0.10950
H1938       H  0.73057283  0.51886993  0.68355412     0.10950
C1939       C  0.76638459  0.49856340  0.20244906    -0.15180
C1940       C  0.75027475  0.51270105  0.18057244     0.06970
C1941       C  0.73581369  0.52437612  0.21557154    -0.15180
C1942       C  0.73696504  0.52134635  0.27135842    -0.15180
C1943       C  0.75365115  0.50772342  0.29311304     0.06970
C1944       C  0.76860146  0.49666147  0.25809375    -0.15180
H1945       H  0.77826672  0.98988892  0.17629366     0.10950
H1946       H  0.72331023  0.53537006  0.19979277     0.10950
H1947       H  0.72554302  0.53041237  0.29769889     0.10950
H1948       H  0.78198492  0.98652263  0.27369509     0.10950
C1949       C  0.78704994  0.91085127  0.06795878    -0.15180
C1950       C  0.75961563  0.91363921  0.06540501     0.06970
C1951       C  0.72829589  0.88515345  0.05545174    -0.15180
C1952       C  0.72475167  0.85515030  0.04395663    -0.15180
C1953       C  0.75252474  0.85304101  0.04212950     0.06970
C1954       C  0.78357053  0.88084646  0.05582720    -0.15180
H1955       H  0.81143705  0.93225624  0.07519308     0.10950
H1956       H  0.70667237  0.88645598  0.05354617     0.10950
H1957       H  0.70056021  0.83395110  0.03426995     0.10950
H1958       H  0.80531161  0.87958937  0.05521506     0.10950
C1959       C  0.70668866  0.59147853  0.90728692    -0.15180
C1960       C  0.73669855  0.59301496  0.91038548     0.06970
C1961       C  0.76605121  0.62399908  0.91111572    -0.15180
C1962       C  0.76547640  0.65231927  0.91515809    -0.15180
C1963       C  0.73553862  0.65079433  0.91914362     0.06970
C1964       C  0.70603445  0.62003426  0.91253873    -0.15180
H1965       H  0.68367588  0.56814386  0.90478052     0.10950
H1966       H  0.78972115  0.62642701  0.91267080     0.10950
H1967       H  0.78877873  0.67547424  0.91906353     0.10950
H1968       H  0.68249169  0.61783990  0.91481293     0.10950
C1969       C  0.85338237  0.64085009  0.54928807    -0.15180
C1970       C  0.88147191  0.65799264  0.51855569     0.06970
C1971       C  0.87934258  0.65391584  0.46222883    -0.15180
C1972       C  0.85033505  0.62909688  0.43752804    -0.15180
C1973       C  0.82385064  0.60818814  0.46942538     0.06970
C1974       C  0.82466089  0.61564499  0.52476939    -0.15180
H1975       H  0.85477682  0.64393664  0.59264283     0.10950
H1976       H  0.90107485  0.66774592  0.43800756     0.10950
H1977       H  0.85033392  0.62336834  0.39516384     0.10950
H1978       H  0.80482770  0.59922827  0.55050434     0.10950
C1979       C  0.62161082  0.84867051  0.51348478    -0.15180
C1980       C  0.59410119  0.84485570  0.48727271     0.06970
C1981       C  0.59208356  0.87220056  0.48145569    -0.15180
C1982       C  0.61725462  0.90286990  0.50205069    -0.15180
C1983       C  0.64437180  0.90629002  0.52955918     0.06970
C1984       C  0.64573164  0.87864543  0.53621200    -0.15180
H1985       H  0.62483543  0.82853794  0.51542329     0.10950
H1986       H  0.57162161  0.86996463  0.45945175     0.10950
H1987       H  0.61674486  0.92412771  0.49307919     0.10950
H1988       H  0.66744825  0.88100683  0.55395936     0.10950
C1989       C  0.86524560  0.72562568  0.47192201    -0.15180
C1990       C  0.89623947  0.75024408  0.45351433     0.06970
C1991       C  0.89913009  0.77743108  0.43010485    -0.15180
C1992       C  0.87237606  0.78146151  0.43090122    -0.15180
C1993       C  0.84242062  0.75808026  0.45436494     0.06970
C1994       C  0.83886275  0.72959629  0.47272590    -0.15180
H1995       H  0.86177617  0.70390412  0.48900684     0.10950
H1996       H  0.92249970  0.79646940  0.41455621     0.10950
H1997       H  0.87549109  0.80331535  0.41505455     0.10950
H1998       H  0.81585631  0.71060727  0.48934706     0.10950
C1999       C  0.61150450  0.77958253  0.59344486    -0.15180
C2000       C  0.58206081  0.75039579  0.60421315     0.06970
C2001       C  0.58362341  0.72320315  0.61617901    -0.15180
C2002       C  0.61260517  0.72364835  0.60750764    -0.15180
C2003       C  0.64025414  0.75120787  0.58659241     0.06970
C2004       C  0.64015720  0.77982463  0.58298850    -0.15180
H2005       H  0.61148826  0.80137747  0.58850739     0.10950
H2006       H  0.56154114  0.70038651  0.62623682     0.10950
H2007       H  0.61237264  0.70158037  0.61232276     0.10950
H2008       H  0.66181308  0.80202272  0.56969102     0.10950
C2009       C  0.50033004  0.72488484  0.74072154    -0.15180
C2010       C  0.98026697  0.73182177  0.71154722     0.06970
C2011       C  0.96412002  0.74503572  0.73798659    -0.15180
C2012       C  0.96721531  0.75052271  0.79324355    -0.15180
C2013       C  0.98712648  0.74357532  0.82276316     0.06970
C2014       C  0.50406868  0.73112527  0.79625505    -0.15180
H2015       H  0.51331734  0.71517430  0.72057547     0.10950
H2016       H  0.94866024  0.75070214  0.71578702     0.10950
H2017       H  0.95370113  0.75975375  0.81306891     0.10950
H2018       H  0.51909853  0.72505938  0.81870571     0.10950
C2019       C  0.52666173  0.73961905  0.23418869    -0.15180
C2020       C  0.50871011  0.74844789  0.20270423     0.06970
C2021       C  0.98758387  0.75607863  0.22788516    -0.15180
C2022       C  0.98634171  0.75748547  0.28342137    -0.15180
C2023       C  0.50612344  0.75122531  0.31525576     0.06970
C2024       C  0.52534049  0.74097655  0.29044327    -0.15180
H2025       H  0.54305651  0.73353153  0.21553907     0.10950
H2026       H  0.97299311  0.76238638  0.20465658     0.10950
H2027       H  0.97067938  0.76469772  0.30153242     0.10950
H2028       H  0.54060626  0.73583489  0.31432822     0.10950
C2029       C  0.90308107  0.63831875  0.04139991    -0.15180
C2030       C  0.90849538  0.64193986  0.98561673     0.06970
C2031       C  0.89239162  0.61474802  0.95080485    -0.15180
C2032       C  0.86761240  0.58516363  0.97092332    -0.15180
C2033       C  0.85877084  0.58296044  0.02553869     0.06970
C2034       C  0.87833990  0.60885737  0.06134060    -0.15180
H2035       H  0.91627412  0.65907267  0.06915890     0.10950
H2036       H  0.89671450  0.61701500  0.90801857     0.10950
H2037       H  0.85231342  0.56525978  0.94262176     0.10950
H2038       H  0.87165243  0.60777815  0.10314087     0.10950
C2039       C  0.62663111  0.87831267  0.06201720    -0.15180
C2040       C  0.60672935  0.84851144  0.03490964     0.06970
C2041       C  0.61815781  0.84199990  0.98659471    -0.15180
C2042       C  0.64781721  0.86580660  0.96352562    -0.15180
C2043       C  0.66680786  0.89633334  0.98915174     0.06970
C2044       C  0.65670041  0.90160958  0.04005966    -0.15180
H2045       H  0.61876690  0.88376739  0.09940339     0.10950
H2046       H  0.60296857  0.81904970  0.96473678     0.10950
H2047       H  0.65442215  0.86120693  0.92423462     0.10950
H2048       H  0.67105342  0.92509387  0.06099124     0.10950
C2049       C  0.92147145  0.80689272  0.06252349    -0.15180
C2050       C  0.92246061  0.78096901  0.08356171     0.06970
C2051       C  0.89288052  0.75465827  0.10352182    -0.15180
C2052       C  0.86293545  0.75268503  0.09803031    -0.15180
C2053       C  0.86139357  0.77720358  0.07328238     0.06970
C2054       C  0.89119694  0.80503602  0.05739716    -0.15180
H2055       H  0.94346896  0.82726012  0.04607333     0.10950
H2056       H  0.89241135  0.73405301  0.11950794     0.10950
H2057       H  0.84048837  0.73096566  0.11064637     0.10950
H2058       H  0.89079032  0.82427719  0.03779139     0.10950
C2059       C  0.58131135  0.69795799  0.91355856    -0.15180
C2060       C  0.58079125  0.72630186  0.91973087     0.06970
C2061       C  0.61097857  0.75654981  0.92467052    -0.15180
C2062       C  0.64074856  0.75833553  0.92853302    -0.15180
C2063       C  0.64117260  0.72992239  0.92645700     0.06970
C2064       C  0.61132342  0.69975716  0.91684525    -0.15180
H2065       H  0.55851448  0.67436254  0.90995989     0.10950
H2066       H  0.61147595  0.77888954  0.92889756     0.10950
H2067       H  0.66336206  0.78193134  0.93458771     0.10950
H2068       H  0.61099064  0.67742461  0.91446331     0.10950
C2069       C  0.89559747  0.87129931  0.55647978    -0.15180
C2070       C  0.90099991  0.90218325  0.56854562     0.06970
C2071       C  0.87473543  0.90390196  0.58889711    -0.15180
C2072       C  0.84286824  0.87595517  0.58951310    -0.15180
C2073       C  0.83681947  0.84573573  0.57067304     0.06970
C2074       C  0.86381487  0.84332189  0.55761872    -0.15180
H2075       H  0.91537513  0.86899231  0.54156385     0.10950
H2076       H  0.87808549  0.92719376  0.59923558     0.10950
H2077       H  0.82261126  0.87851360  0.60044309     0.10950
H2078       H  0.86006875  0.82037707  0.54332058     0.10950
C2079       C  0.61140685  0.59936222  0.38995847    -0.15180
C2080       C  0.58045499  0.59255430  0.40644717     0.06970
C2081       C  0.57808960  0.61873786  0.42505300    -0.15180
C2082       C  0.60659973  0.64890963  0.43896572    -0.15180
C2083       C  0.63766000  0.65377293  0.43107950     0.06970
C2084       C  0.63983891  0.62983290  0.40213903    -0.15180
H2085       H  0.61417133  0.58004732  0.37433517     0.10950
H2086       H  0.55441432  0.61470559  0.43530964     0.10950
H2087       H  0.60451808  0.66763207  0.45909218     0.10950
H2088       H  0.66362792  0.63319982  0.39467961     0.10950
C2089       C  0.86925442  0.45497554  0.49507347    -0.15180
C2090       C  0.89685439  0.98355431  0.47568733     0.06970
C2091       C  0.89733826  0.01244649  0.47852537    -0.15180
C2092       C  0.87059177  0.01271106  0.49913173    -0.15180
C2093       C  0.84259183  0.98402714  0.51746240     0.06970
C2094       C  0.84248603  0.45526877  0.51628521    -0.15180
H2095       H  0.86854215  0.43245792  0.49436659     0.10950
H2096       H  0.91850488  0.03491222  0.46487035     0.10950
H2097       H  0.87142717  0.03529630  0.49871961     0.10950
H2098       H  0.82118003  0.43272388  0.52936217     0.10950
C2099       C  0.64146957  0.55931268  0.47934981    -0.15180
C2100       C  0.61855145  0.53809280  0.51658279     0.06970
C2101       C  0.61998196  0.51163573  0.53272820    -0.15180
C2102       C  0.64178998  0.50484269  0.50935410    -0.15180
C2103       C  0.66394768  0.52504001  0.47053612     0.06970
C2104       C  0.66426465  0.55293526  0.45665925    -0.15180
H2105       H  0.64078846  0.57979436  0.46615169     0.10950
H2106       H  0.60260425  0.49477393  0.56133285     0.10950
H2107       H  0.64146125  0.48376128  0.52248204     0.10950
H2108       H  0.68199486  0.56967187  0.42839448     0.10950
C2109       C  0.53000024  0.89900549  0.51052980    -0.15180
C2110       C  0.00253892  0.89748684  0.48740577     0.06970
C2111       C  0.97205629  0.86792450  0.48518854    -0.15180
C2112       C  0.96933511  0.84018605  0.50458376    -0.15180
C2113       C  0.99719230  0.84128802  0.52400898     0.06970
C2114       C  0.52728703  0.87095387  0.52859140    -0.15180
H2115       H  0.55364749  0.92183528  0.51416474     0.10950
H2116       H  0.95037396  0.86637261  0.46924625     0.10950
H2117       H  0.94568597  0.81748426  0.50269256     0.10950
H2118       H  0.54849061  0.87227204  0.54587739     0.10950
C2119       C  0.99498166  0.60856846  0.50535923    -0.15180
C2120       C  0.52364895  0.61352332  0.52952982     0.06970
C2121       C  0.55222000  0.64512543  0.53150251    -0.15180
C2122       C  0.55189642  0.67114479  0.50971372    -0.15180
C2123       C  0.52285929  0.66603975  0.48670248     0.06970
C2124       C  0.99468181  0.63429448  0.48391855    -0.15180
H2125       H  0.97271719  0.58453622  0.50184709     0.10950
H2126       H  0.57491870  0.64954235  0.54871721     0.10950
H2127       H  0.57395965  0.69530866  0.51212986     0.10950
H2128       H  0.97178887  0.62941201  0.46667213     0.10950
C2129       C  0.00075520  0.97497024  0.76215874    -0.15180
C2130       C  0.01591266  0.00156836  0.79926512     0.06970
C2131       C  0.53451348  0.53319004  0.77960353    -0.15180
C2132       C  0.53663601  0.53803595  0.72403002    -0.15180
C2133       C  0.01962209  0.01139896  0.68748390     0.06970
C2134       C  0.00216793  0.97986003  0.70702004    -0.15180
H2135       H  0.98610794  0.95028561  0.77579283     0.10950
H2136       H  0.54646190  0.55413533  0.80712898     0.10950
H2137       H  0.54974328  0.56261344  0.70979399     0.10950
H2138       H  0.98851043  0.95900616  0.67959948     0.10950
C2139       C  0.53355430  0.48786018  0.21535326    -0.15180
C2140       C  0.50727982  0.48480277  0.18530866     0.06970
C2141       C  0.97929472  0.97911406  0.21316931    -0.15180
C2142       C  0.97782523  0.97709552  0.26933390    -0.15180
C2143       C  0.50416522  0.48042039  0.29944783     0.06970
C2144       C  0.53195867  0.48555604  0.27155177    -0.15180
H2145       H  0.55561613  0.49247246  0.19548310     0.10950
H2146       H  0.95871318  0.97700405  0.19169657     0.10950
H2147       H  0.95597707  0.97305971  0.28923847     0.10950
H2148       H  0.55273284  0.48822560  0.29324368     0.10950
C2149       C  0.84353812  0.87734254  0.92967470    -0.15180
C2150       C  0.84340197  0.84890508  0.93795320     0.06970
C2151       C  0.87133302  0.84835170  0.92565482    -0.15180
C2152       C  0.90036090  0.87703811  0.91202928    -0.15180
C2153       C  0.90185772  0.90665805  0.91065723     0.06970
C2154       C  0.87255758  0.90597658  0.91459091    -0.15180
H2155       H  0.82172384  0.87783096  0.93776200     0.10950
H2156       H  0.87150055  0.82653134  0.93098512     0.10950
H2157       H  0.92265511  0.87684776  0.90848493     0.10950
H2158       H  0.87289390  0.92817049  0.91168389     0.10950
C2159       C  0.59492124  0.62855142  0.07089481    -0.15180
C2160       C  0.59129581  0.59853525  0.07940138     0.06970
C2161       C  0.62022151  0.59833554  0.08637170    -0.15180
C2162       C  0.65169661  0.62653397  0.08036447    -0.15180
C2163       C  0.65534739  0.65597311  0.06678208     0.06970
C2164       C  0.62651573  0.65689631  0.06461963    -0.15180
H2165       H  0.57337280  0.62959192  0.06434498     0.10950
H2166       H  0.61835842  0.57546777  0.09156538     0.10950
H2167       H  0.67299078  0.62459189  0.08225970     0.10950
H2168       H  0.62814381  0.67906915  0.05429561     0.10950
C2169       C  0.87805865  0.96428326  0.00542293    -0.15180
C2170       C  0.90292582  0.49422649  0.02982660     0.06970
C2171       C  0.89697901  0.51907850  0.03513635    -0.15180
C2172       C  0.86808609  0.51483314  0.01341231    -0.15180
C2173       C  0.84410329  0.98583007  0.98535596     0.06970
C2174       C  0.84919607  0.96018519  0.98279849    -0.15180
H2175       H  0.88155645  0.94424575  0.00266920     0.10950
H2176       H  0.91535287  0.54238115  0.05354106     0.10950
H2177       H  0.86464544  0.53456359  0.01891677     0.10950
H2178       H  0.83082156  0.93698102  0.96416496     0.10950
C2179       C  0.62684216  0.03149583  0.96616127    -0.15180
C2180       C  0.60217006  0.99960095  0.94808515     0.06970
C2181       C  0.60626080  0.97406732  0.95791635    -0.15180
C2182       C  0.63327133  0.47988570  0.98802377    -0.15180
C2183       C  0.65755877  0.51164430  0.00717867     0.06970
C2184       C  0.65397446  0.53736203  0.99615094    -0.15180
H2185       H  0.62433622  0.05186952  0.95955760     0.10950
H2186       H  0.58772902  0.94940669  0.94492052     0.10950
H2187       H  0.63545384  0.45937873  0.99518545     0.10950
H2188       H  0.67251331  0.56202845  0.00929009     0.10950
C2189       C  0.54582854  0.90073685  0.01425625    -0.15180
C2190       C  0.51947798  0.90511221  0.00935231     0.06970
C2191       C  0.99079499  0.88063609  0.98134308    -0.15180
C2192       C  0.98770897  0.85221318  0.96141338    -0.15180
C2193       C  0.01280302  0.84651509  0.96966106     0.06970
C2194       C  0.54257614  0.87174155  0.99423874    -0.15180
H2195       H  0.56855464  0.91932783  0.03408784     0.10950
H2196       H  0.97008370  0.88311820  0.97481052     0.10950
H2197       H  0.96455355  0.83367289  0.94252115     0.10950
H2198       H  0.56279313  0.86853860  0.00021603     0.10950
C2199       C  0.96296287  0.58863636  0.97319634    -0.15180
C2200       C  0.99077919  0.58691401  0.96642509     0.06970
C2201       C  0.52180923  0.61388865  0.98281993    -0.15180
C2202       C  0.52492322  0.64162612  0.00691817    -0.15180
C2203       C  0.49708044  0.64328548  0.01467071     0.06970
C2204       C  0.96609162  0.61642551  0.99759400    -0.15180
H2205       H  0.93872075  0.56796681  0.96223163     0.10950
H2206       H  0.54367973  0.61303177  0.97843161     0.10950
H2207       H  0.54926864  0.66213790  0.01795899     0.10950
H2208       H  0.94423172  0.61690076  0.00302333     0.10950
loop_ 
_geom_bond_atom_site_label_1 
_geom_bond_atom_site_label_2 
_geom_bond_distance 
_geom_bond_site_symmetry_2 
_ccdc_geom_bond_type 
O1            C9   1.280       .  A
O1        Co1125   1.970       .  S
O2           C10   1.240   1_655  A
O2        Co1126   1.936   1_554  S
O3           C11   1.272       .  A
O3          Co23   2.048       .  S
O4           C12   1.286   1_545  A
O4          Co24   2.043       .  S
O5           C11   1.249       .  A
O5          Co22   1.932       .  S
O6           C12   1.275   1_655  A
O6          Co21   1.973   1_565  S
O7           C10   1.275       .  A
O7         Co576   2.092       .  S
O8          C561   1.274       .  A
O8          Co23   2.036   1_554  S
C9          O560   1.274   1_545  A
C9          C514   1.493   1_545  S
C10         C534   1.495       .  S
C11         C497   1.476       .  S
C12         C484   1.498       .  S
O13          C26   1.276       .  A
O13         Co21   2.065   1_455  S
O14          C27   1.279       .  A
O14         Co22   2.023       .  S
O15          C28   1.277       .  A
O15        Co575   1.948       .  S
O16         C581   1.233   1_545  A
O16         Co24   1.937   1_556  S
O17          C29   1.271       .  A
O17       Co1126   2.060   1_455  S
O18          C28   1.277       .  A
O18       Co1125   2.035   1_556  S
O19          C26   1.247       .  A
O19         Co24   1.949       .  S
O20          C27   1.271       .  A
O20         Co23   1.980       .  S
Co21       O1105   1.970       .  S
Co21       O1122   2.035   1_654  S
Co21       O1129   2.028   1_644  S
Co22       O1106   1.936   1_556  S
Co22       O1121   2.060       .  S
Co22        O577   2.018       .  S
Co23        O567   1.948       .  S
Co23        O577   2.012       .  S
Co24        O559   2.092   1_545  S
Co24       O1129   2.004   1_544  S
O25       Co1125   2.028   1_566  S
O25        Co574   2.018       .  S
O25        Co575   2.012   1_565  S
O25       Co1128   2.004   1_566  S
C26         C504   1.494       .  S
C27         C474   1.487       .  S
C28         C544   1.472       .  S
C29         O568   1.233       .  A
C29         C524   1.470       .  S
O30          C38   1.273       .  A
O30         Co50   2.034       .  S
O31        C1143   1.288       .  A
O31        Co603   2.065       .  S
O32          C40   1.252       .  A
O32         Co52   2.009       .  S
O33          C41   1.255       .  A
O33         Co53   1.970       .  S
O34          C40   1.241       .  A
O34         Co51   1.948       .  S
O35          C41   1.273       .  A
O35         Co50   2.040   1_545  S
O36          C39   1.258       .  A
O36         Co53   1.912       .  S
O37        C1694   1.261       .  A
O37         Co52   1.975       .  S
C38        O1693   1.261   1_455  A
C38         C487   1.498       .  S
C39        O1135   1.288   1_455  A
C39         C464   1.481       .  S
C40         C434   1.474       .  S
C41         C424   1.487       .  S
O42          C55   1.232       .  A
O42         Co50   1.935   1_545  S
O43          C56   1.271       .  A
O43         Co51   2.036       .  S
O44        C1161   1.261       .  A
O44         Co52   2.013       .  S
O45        C1714   1.258       .  A
O45         Co53   2.010       .  S
O46          C58   1.252       .  A
O46         Co51   1.968       .  S
O47          C57   1.238       .  A
O47        Co602   1.927       .  S
O48          C55   1.251       .  A
O48         Co53   2.056       .  S
O49          C56   1.254       .  A
O49         Co52   1.960       .  S
Co50        O599   1.927       .  S
Co50         O54   2.075       .  S
Co51        O583   2.065       .  S
Co51       O1710   2.154       .  S
Co52       O1710   2.145       .  S
Co53         O54   2.068   1_545  S
O54       Co1707   2.154   1_465  S
O54       Co1708   2.145   1_455  S
C55         C444   1.472       .  S
C56         C414   1.486       .  S
C57        O1148   1.261   1_455  A
C57        C1558   1.465       .  S
C58        O1701   1.258       .  A
C58         C477   1.476       .  S
O59          C67   1.286       .  A
O59         Co79   2.024   1_556  S
O60          C68   1.267       .  A
O60         Co80   2.019       .  S
O61          C69   1.252       .  A
O61         Co81   1.970       .  S
O62          C70   1.280       .  A
O62         Co82   1.939       .  S
O63          C69   1.263       .  A
O63         Co80   1.994       .  S
O64          C70   1.275       .  A
O64         Co79   2.006       .  S
O65          C68   1.253       .  A
O65       Co1186   1.969   1_556  S
O66          C67   1.281       .  A
O66       Co1185   1.952   1_455  S
C67         C404   1.480       .  S
C68         C537   1.491       .  S
C69         C357   1.460       .  S
C70         C384   1.478       .  S
O71          C84   1.259       .  A
O71         Co79   1.984       .  S
O72          C85   1.254       .  A
O72         Co80   1.924       .  S
O73        C1190   1.228       .  A
O73         Co81   1.964   1_554  S
O74          C87   1.285       .  A
O74       Co1186   2.094       .  S
O75          C87   1.254       .  A
O75         Co80   1.954   1_554  S
O76          C86   1.246       .  A
O76         Co79   2.021       .  S
O77          C84   1.257       .  A
O77         Co82   1.958       .  S
O78          C85   1.275       .  A
O78         Co81   2.014       .  S
Co79       O1187   2.226   1_455  S
Co80         O83   2.094   1_556  S
Co81       O1170   1.952       .  S
Co81         O83   1.940   1_556  S
Co82       O1169   1.969   1_554  S
Co82       O1178   2.094   1_455  S
Co82       O1187   1.995   1_455  S
O83       Co1183   2.226       .  S
O83       Co1186   1.995       .  S
C84         C364   1.472       .  S
C85         C374   1.460       .  S
C86        O1177   1.228   1_455  A
C86         C547   1.481   1_455  S
C87         C394   1.503       .  S
O88          C96   1.271       .  A
O88       Co1212   2.005   1_455  S
O89          C97   1.282       .  A
O89       Co1213   2.009       .  S
O90          C98   1.272       .  A
O90        Co110   1.896       .  S
O91          C99   1.260       .  A
O91        Co111   1.929       .  S
O92          C98   1.312       .  A
O92        Co109   2.123   1_455  S
O93          C99   1.282       .  A
O93        Co108   2.036       .  S
O94          C97   1.259       .  A
O94        Co111   1.977       .  S
O95          C96   1.274       .  A
O95        Co110   1.991       .  S
C96         C344   1.487       .  S
C97         C457   1.459       .  S
C98         C324   1.473       .  S
C99         C354   1.457       .  S
O100        C113   1.245       .  A
O100       Co108   1.928       .  S
O101        C114   1.257       .  A
O101       Co109   1.877   1_455  S
O102        C115   1.264       .  A
O102       Co110   2.040       .  S
O103        C116   1.249       .  A
O103       Co111   1.954       .  S
O104        C116   1.264       .  A
O104      Co1213   2.028       .  S
O105       C1219   1.246       .  A
O105       Co108   1.950       .  S
O106        C113   1.258       .  A
O106       Co111   1.985       .  S
O107        C114   1.293       .  A
O107       Co110   2.113       .  S
Co108      O1192   2.005       .  S
Co108       O112   2.022       .  S
Co109      O1193   2.009   1_655  S
Co109      O1208   2.028       .  S
Co109      O1216   1.984       .  S
Co110      O1216   2.048   1_455  S
Co111       O112   2.055       .  S
O112      Co1213   1.984       .  S
O112      Co1214   2.048       .  S
C113        C314   1.451       .  S
C114        C367   1.471       .  S
C115       O1209   1.246   1_455  A
C115        C467   1.480       .  S
C116        C334   1.481       .  S
O117        C125   1.260       .  A
O117       Co137   2.045       .  S
O118        C126   1.275       .  A
O118       Co138   2.062   1_554  S
O119        C127   1.237       .  A
O119       Co139   1.893       .  S
O120        C128   1.256   1_565  A
O120       Co140   1.956       .  S
O121        C127   1.270       .  A
O121       Co138   2.025       .  S
O122        C128   1.278       .  A
O122       Co137   2.052       .  S
O123        C126   1.269       .  A
O123       Co692   1.968       .  S
O124        C677   1.227       .  A
O124       Co139   1.932   1_554  S
C125        O676   1.227   1_545  A
C125        C527   1.471       .  S
C126        C294   1.486       .  S
C127        C387   1.479       .  S
C128        C284   1.485       .  S
O129        C142   1.243       .  A
O129       Co137   1.916       .  S
O130        C143   1.277       .  A
O130       Co138   1.992       .  S
O131        C144   1.274       .  A
O131       Co691   2.063   1_545  S
O132        C697   1.271   1_545  A
O132       Co140   2.023   1_546  S
O133        C145   1.280       .  A
O133       Co138   1.993       .  S
O134        C144   1.254       .  A
O134       Co137   1.961   1_556  S
O135        C142   1.263       .  A
O135       Co140   2.006   1_545  S
O136        C143   1.284       .  A
O136       Co139   2.030       .  S
Co137       O693   2.110   1_554  S
Co138       O141   2.098       .  S
Co139       O683   2.063       .  S
Co139       O141   2.020       .  S
Co140       O675   1.968       .  S
Co140       O693   2.036   1_564  S
O141       Co689   2.110   1_556  S
O141       Co692   2.036   1_556  S
C142        C377   1.452       .  S
C143        C274   1.499       .  S
C144        C304   1.503       .  S
C145        O684   1.271       .  A
C145        C517   1.506       .  S
O146        C154   1.282       .  A
O146       Co166   2.065       .  S
O147        C155   1.270       .  A
O147       Co167   2.033       .  S
O148        C156   1.263       .  A
O148       Co168   1.958       .  S
O149        C157   1.248       .  A
O149       Co169   1.937       .  S
O150        C156   1.286       .  A
O150       Co167   2.073       .  S
O151        C157   1.258       .  A
O151       Co166   2.002       .  S
O152        C707   1.250   1_545  A
O152       Co169   1.948       .  S
O153        C154   1.275       .  A
O153       Co720   1.960       .  S
C154        C264   1.487       .  S
C155        O704   1.250       .  A
C155        C437   1.479       .  S
C156        C277   1.502       .  S
C157        C317   1.450       .  S
O158        C171   1.266   1_565  A
O158       Co166   1.955   1_565  S
O159        C172   1.244       .  A
O159       Co167   1.935       .  S
O160        C725   1.287       .  A
O160       Co168   2.067       .  S
O161        C174   1.270       .  A
O161       Co721   2.036       .  S
O162        C174   1.258       .  A
O162       Co167   1.966       .  S
O163        C173   1.269       .  A
O163       Co166   1.933       .  S
O164        C171   1.284       .  A
O164       Co169   2.048       .  S
O165        C172   1.266       .  A
O165       Co168   2.030       .  S
Co166       O722   2.022   1_545  S
Co167       O170   2.029       .  S
Co168       O705   1.960       .  S
Co168       O170   2.062       .  S
Co169       O713   2.036   1_545  S
Co169       O722   2.032   1_545  S
O170       Co718   2.022       .  S
O170       Co721   2.032       .  S
C171        C287   1.484       .  S
C172        C327   1.458       .  S
C173        O712   1.287   1_545  A
C173        C447   1.477       .  S
C174        C254   1.487       .  S
O175        C183   1.263       .  A
O175       Co195   1.977   1_554  S
O176        C184   1.251       .  A
O176       Co196   1.977       .  S
O177        C185   1.268       .  A
O177       Co197   2.013       .  S
O178        C186   1.299       .  A
O178       Co198   2.099       .  S
O179        C185   1.251       .  A
O179       Co196   1.928       .  S
O180        C186   1.264       .  A
O180       Co195   1.903       .  S
O181        C184   1.259   1_556  A
O181       Co198   2.018       .  S
O182        C183   1.286       .  A
O182       Co197   2.068       .  S
C183        C507   1.508       .  S
C184        C297   1.478       .  S
C185        C244   1.457       .  S
C186        C407   1.481       .  S
O187        C200   1.299       .  A
O187       Co195   2.100       .  S
O188        C201   1.276       .  A
O188       Co196   2.048       .  S
O189        C202   1.252       .  A
O189       Co197   1.970   1_556  S
O190        C203   1.264       .  A
O190       Co198   1.978       .  S
O191        C203   1.276   1_554  A
O191       Co196   2.026       .  S
O192        C202   1.266       .  A
O192       Co195   2.046       .  S
O193        C200   1.261       .  A
O193       Co198   1.867       .  S
O194        C201   1.263       .  A
O194       Co197   1.977       .  S
Co195       O199   2.033   1_556  S
Co196       O199   2.044       .  S
Co197       O199   2.051       .  S
Co198       O199   2.015   1_556  S
C200        C234   1.464       .  S
C201        C397   1.497       .  S
C202        C307   1.501       .  S
C203        C494   1.469       .  S
O204        C212   1.254       .  A
O204       Co224   1.978       .  S
O205        C213   1.263       .  A
O205       Co225   1.968       .  S
O206        C214   1.268       .  A
O206       Co226   2.031       .  S
O207        C215   1.248       .  A
O207       Co227   1.970       .  S
O208        C214   1.254       .  A
O208       Co225   1.953       .  S
O209        C215   1.243       .  A
O209       Co224   1.963       .  S
O210        C213   1.275       .  A
O210       Co227   2.040       .  S
O211        C212   1.259       .  A
O211       Co226   1.985       .  S
C212        C427   1.477       .  S
C213        C257   1.485       .  S
C214        C347   1.480       .  S
C215        C247   1.457       .  S
O216        C229   1.303       .  A
O216       Co224   2.065       .  S
O217        C230   1.273       .  A
O217       Co225   2.014       .  S
O218        C231   1.291       .  A
O218       Co226   2.090       .  S
O219        C232   1.253       .  A
O219       Co227   1.994       .  S
O220        C232   1.262       .  A
O220       Co225   2.012       .  S
O221        C231   1.261       .  A
O221       Co224   1.864       .  S
O222        C229   1.275       .  A
O222       Co227   1.907       .  S
O223        C230   1.255       .  A
O223       Co226   1.943       .  S
Co224       O228   2.050       .  S
Co225       O228   2.074       .  S
Co226       O228   2.142       .  S
Co227       O228   1.941       .  S
C229        C337   1.479       .  S
C230        C237   1.463       .  S
C231        C267   1.478       .  S
C232        C417   1.483       .  S
C233        C234   1.399       .  A
C233        C238   1.394       .  A
C233        H239   1.084       .  S
C234        C235   1.407       .  A
C235        C236   1.387       .  A
C235        H240   1.082       .  S
C236        C237   1.397       .  A
C236        H241   1.084       .  S
C237        C238   1.408       .  A
C238        H242   1.082       .  S
C243        C244   1.405       .  A
C243        C248   1.381       .  A
C243        H249   1.084       .  S
C244        C245   1.399       .  A
C245        C246   1.395       .  A
C245        H250   1.082       .  S
C246        C247   1.407       .  A
C246        H251   1.084       .  S
C247        C248   1.396       .  A
C248        H252   1.083       .  S
C253        C254   1.404       .  A
C253        C258   1.396       .  A
C253        H259   1.083       .  S
C254        C255   1.409       .  A
C255        C256   1.408       .  A
C255        H260   1.081       .  S
C256        C257   1.406       .  A
C256        H261   1.083       .  S
C257        C258   1.406       .  A
C258        H262   1.083       .  S
C263        C264   1.406       .  A
C263        C268   1.376       .  A
C263        H269   1.075       .  S
C264        C265   1.407       .  A
C265        C266   1.415       .  A
C265        H270   1.083       .  S
C266        C267   1.414       .  A
C266        H271   1.082       .  S
C267        C268   1.393       .  A
C268        H272   1.084       .  S
C273        C278   1.405       .  A
C273        C826   1.404   1_545  A
C273        H279   1.083       .  S
C274        C275   1.412       .  A
C274        C825   1.404       .  A
C275        C276   1.415       .  A
C275        H280   1.083       .  S
C276        C277   1.408       .  A
C276        H281   1.082       .  S
C277        C830   1.411       .  A
C278        C829   1.411   1_545  A
C278        H282   1.084       .  S
C283        C284   1.410   1_565  A
C283        C288   1.401       .  A
C283        H841   1.082       .  S
C284        C285   1.402       .  A
C285        C286   1.407       .  A
C285        H290   1.083       .  S
C286        C287   1.411       .  A
C286        H291   1.083       .  S
C287        C288   1.400   1_545  A
C288        H844   1.083       .  S
H289        C835   1.082       .  S
H292        C840   1.083       .  S
C293        C294   1.404       .  A
C293        C298   1.406       .  A
C293        H299   1.082       .  S
C294        C295   1.411       .  A
C295        C296   1.401       .  A
C295        H300   1.080       .  S
C296        C297   1.398       .  A
C296        H301   1.083       .  S
C297        C298   1.407       .  A
C298        H302   1.083       .  S
C303        C304   1.411       .  A
C303        C308   1.415       .  A
C303        H309   1.079       .  S
C304        C305   1.407       .  A
C305        C306   1.400       .  A
C305        H310   1.083       .  S
C306        C307   1.409       .  A
C306        H311   1.083       .  S
C307        C308   1.409       .  A
C308        H312   1.083       .  S
C313        C314   1.389       .  A
C313        C318   1.387       .  A
C313        H319   1.083       .  S
C314        C315   1.407       .  A
C315        C316   1.390       .  A
C315        H320   1.084       .  S
C316        C317   1.393       .  A
C316        H321   1.083       .  S
C317        C318   1.410       .  A
C318        H322   1.081       .  S
C323        C324   1.398       .  A
C323        C328   1.389       .  A
C323        H329   1.079       .  S
C324        C325   1.404       .  A
C325        C326   1.405       .  A
C325        H330   1.082       .  S
C326        C327   1.404       .  A
C326        H331   1.083       .  S
C327        C328   1.403       .  A
C328        H332   1.085       .  S
C333        C334   1.407       .  A
C333        C338   1.387       .  A
C333        H339   1.083       .  S
C334        C335   1.405       .  A
C335        C336   1.407       .  A
C335        H340   1.083       .  S
C336        C337   1.410       .  A
C336        H341   1.083       .  S
C337        C338   1.400       .  A
C338        H342   1.083       .  S
C343        C344   1.399       .  A
C343        C348   1.399       .  A
C343        H349   1.077       .  S
C344        C345   1.413       .  A
C345        C346   1.402       .  A
C345        H350   1.083       .  S
C346        C347   1.401       .  A
C346        H351   1.083       .  S
C347        C348   1.407       .  A
C348        H352   1.083       .  S
C353        C358   1.398       .  A
C353       C1458   1.399   1_455  A
C353        H359   1.083       .  S
C354        C355   1.403       .  A
C354       C1457   1.399       .  A
C355        C356   1.387       .  A
C355        H360   1.084       .  S
C356        C357   1.398       .  A
C356        H361   1.083       .  S
C357       C1462   1.408       .  A
C358       C1461   1.408   1_455  A
C358        H362   1.083       .  S
C363        C364   1.408       .  A
C363        C368   1.404       .  A
C363        H369   1.083       .  S
C364       C1469   1.401   1_455  A
C365        C366   1.386       .  A
C365       C1468   1.401       .  A
C365        H370   1.084       .  S
C366       C1471   1.404       .  A
C366        H371   1.083       .  S
C367        C368   1.403       .  A
C367       C1470   1.404   1_455  A
C368        H372   1.083       .  S
C373        C374   1.412   1_554  A
C373        C378   1.389       .  A
C373        H379   1.083       .  S
C374        C375   1.392       .  A
C375        C376   1.395       .  A
C375        H380   1.083       .  S
C376        C377   1.414   1_556  A
C376        H381   1.083       .  S
C377        C378   1.390       .  A
C378        H382   1.083       .  S
C383        C384   1.389       .  A
C383        C388   1.396       .  A
C383        H389   1.083       .  S
C384        C385   1.419   1_554  A
C385        C386   1.403       .  A
C385        H390   1.081       .  S
C386        C387   1.393       .  A
C386        H391   1.082       .  S
C387        C388   1.422   1_556  A
C388        H392   1.084       .  S
C393        C394   1.411       .  A
C393        C398   1.419       .  A
C393        H399   1.080       .  S
C394        C395   1.411       .  A
C395        C396   1.402       .  A
C395        H400   1.084       .  S
C396        C397   1.402       .  A
C396        H401   1.084       .  S
C397        C398   1.411       .  A
C398        H402   1.083       .  S
C403        C404   1.403       .  A
C403        C408   1.405       .  A
C403        H409   1.082       .  S
C404        C405   1.409       .  A
C405        C406   1.394       .  A
C405        H410   1.081       .  S
C406        C407   1.399       .  A
C406        H411   1.083       .  S
C407        C408   1.411       .  A
C408        H412   1.083       .  S
C413        C414   1.408       .  A
C413        C418   1.399       .  A
C413        H419   1.082       .  S
C414        C415   1.406       .  A
C415        C416   1.400       .  A
C415        H420   1.082       .  S
C416        C417   1.406       .  A
C416        H421   1.083       .  S
C417        C418   1.405       .  A
C418        H422   1.083       .  S
C423        C424   1.406       .  A
C423        C428   1.399       .  A
C423        H429   1.083       .  S
C424        C425   1.409       .  A
C425        C426   1.402       .  A
C425        H430   1.080       .  S
C426        C427   1.398       .  A
C426        H431   1.081       .  S
C427        C428   1.406       .  A
C428        H432   1.084       .  S
C433        C438   1.400       .  A
C433        C986   1.408       .  A
C433        H439   1.082       .  S
C434        C435   1.399       .  A
C434        C985   1.408       .  A
C435        C436   1.393       .  A
C435        H440   1.083       .  S
C436        C437   1.410       .  A
C436        H441   1.083       .  S
C437        C990   1.403       .  A
C438        C989   1.403       .  A
C438        H442   1.083       .  S
C443        C444   1.405       .  A
C443        C448   1.407       .  A
C443        H449   1.081       .  S
C444        C445   1.403       .  A
C445        C446   1.384       .  A
C445        H450   1.085   1_545  S
C446        C447   1.402       .  A
C446        H451   1.083   1_545  S
C447        C448   1.410       .  A
C448        H452   1.083       .  S
C453        C458   1.395       .  A
C453       C1558   1.411       .  A
C453        H459   1.083       .  S
C454       C1161   1.465       .  S
C454        C455   1.397       .  A
C454       C1557   1.411       .  A
C455        C456   1.392       .  A
C455        H460   1.083       .  S
C456        C457   1.403       .  A
C456        H461   1.079       .  S
C457       C1562   1.392       .  A
C458       C1561   1.392   1_455  A
C458        H462   1.080       .  S
C463        C468   1.389       .  A
C463       C1568   1.403       .  A
C463        H469   1.082       .  S
C464        C465   1.408       .  A
C464       C1567   1.403   1_455  A
C465        C466   1.407       .  A
C465        H470   1.083       .  S
C466        C467   1.405       .  A
C466        H471   1.081       .  S
C467       C1572   1.405   1_455  A
C468       C1571   1.405       .  A
C468        H472   1.083       .  S
C473        C474   1.407       .  A
C473        C478   1.397       .  A
C473        H479   1.083       .  S
C474       C2131   1.408       .  A
C475        C476   1.406       .  A
C475       C2130   1.408       .  A
C475        H480   1.082       .  S
C476       C2133   1.405       .  A
C476        H481   1.083       .  S
C477        C478   1.402       .  A
C477       C2132   1.405       .  A
C478        H482   1.083       .  S
C483        C484   1.409       .  A
C483        C488   1.407       .  A
C483        H489   1.083       .  S
C484       C2141   1.409   1_455  A
C485        C486   1.405       .  A
C485       C2140   1.409       .  A
C485        H490   1.083       .  S
C486       C2143   1.409       .  A
C486        H491   1.083       .  S
C487        C488   1.408       .  A
C487       C2142   1.409   1_455  A
C488        H492   1.083       .  S
C493        C494   1.408       .  A
C493        C498   1.404       .  A
C493        H499   1.083       .  S
C494        C495   1.395       .  A
C495        C496   1.395       .  A
C495        H500   1.083       .  S
C496        C497   1.412       .  A
C496        H501   1.084       .  S
C497        C498   1.399       .  A
C498        H502   1.081       .  S
C503        C504   1.404       .  A
C503        C508   1.413       .  A
C503        H509   1.081       .  S
C504        C505   1.412       .  A
C505        C506   1.406       .  A
C505        H510   1.084       .  S
C506        C507   1.405       .  A
C506        H511   1.083       .  S
C507        C508   1.417       .  A
C508        H512   1.083       .  S
C513        C518   1.412   1_554  A
C513       C1066   1.416       .  A
C513        H519   1.080       .  S
C514        C515   1.393   1_565  A
C514       C1065   1.416       .  A
C515        C516   1.402       .  A
C515        H520   1.082       .  S
C516       C1069   1.416   1_544  A
C516        H521   1.068       .  S
C517        C518   1.401       .  A
C517       C1068   1.416   1_556  A
C518        H522   1.082       .  S
C523        C524   1.415       .  A
C523       C1080   1.393       .  A
C523        H529   1.084       .  S
C524        C525   1.394       .  A
C525       C1078   1.391       .  A
C525        H530   1.081       .  S
C526        C527   1.415   1_566  A
C526       C1077   1.391       .  A
C526        H531   1.083       .  S
C527        C528   1.394   1_554  A
C528       C1075   1.393       .  A
C528        H532   1.083   1_556  S
C533        C534   1.405       .  A
C533        C538   1.413   1_554  A
C533        H539   1.082       .  S
C534       C1639   1.413   1_454  A
C535        C536   1.390       .  A
C535       C1638   1.413   1_556  A
C535        H540   1.083       .  S
C536        C537   1.398       .  A
C536        H541   1.083       .  S
C537       C1642   1.415       .  A
C538       C1641   1.415       .  A
C538        H542   1.080   1_556  S
C543        C544   1.398       .  A
C543        C548   1.401       .  A
C543        H549   1.082       .  S
C544       C1649   1.408       .  A
C545        C546   1.396   1_556  A
C545       C1648   1.408   1_455  A
C545        H550   1.083       .  S
C546        C547   1.401   1_455  A
C546        H551   1.083       .  S
C547       C1652   1.410   1_554  A
C548       C1651   1.410   1_556  A
C548        H552   1.075   1_556  S
O553        C561   1.280       .  A
O553      Co1677   1.970       .  S
O554        C562   1.240   1_655  A
O554      Co1678   1.936   1_554  S
O555        C563   1.272       .  A
O555       Co575   2.048   1_565  S
O556        C564   1.286       .  A
O556       Co576   2.043       .  S
O557        C563   1.249       .  A
O557       Co574   1.932       .  S
O558        C564   1.275   1_655  A
O558       Co573   1.973       .  S
O559        C562   1.275       .  A
O560       Co575   2.036   1_564  S
C561       C1066   1.493       .  S
C562       C1086   1.495       .  S
C563       C1049   1.476       .  S
C564       C1036   1.499       .  S
O565        C578   1.276       .  A
O565       Co573   2.065   1_455  S
O566        C579   1.279       .  A
O566       Co574   2.023       .  S
O567        C580   1.277       .  A
O568       Co576   1.937   1_556  S
O569        C581   1.271       .  A
O569      Co1678   2.060   1_455  S
O570        C580   1.277       .  A
O570      Co1677   2.035   1_556  S
O571        C578   1.247       .  A
O571       Co576   1.949       .  S
O572        C579   1.271   1_545  A
O572       Co575   1.980       .  S
Co573      O1657   1.970       .  S
Co573      O1674   2.035   1_654  S
Co573      O1681   2.028   1_654  S
Co574      O1658   1.936   1_556  S
Co574      O1673   2.060       .  S
Co576      O1681   2.004   1_554  S
O577      Co1677   2.028   1_556  S
O577      Co1680   2.004   1_556  S
C578       C1056   1.494       .  S
C579       C1026   1.487   1_565  S
C580       C1096   1.472       .  S
C581       C1076   1.470       .  S
O582        C590   1.273       .  A
O582       Co602   2.034       .  S
O583       C1695   1.288       .  A
O584        C592   1.252       .  A
O584       Co604   2.009       .  S
O585        C593   1.255       .  A
O585       Co605   1.970       .  S
O586        C592   1.241   1_545  A
O586       Co603   1.948       .  S
O587        C593   1.273       .  A
O587       Co602   2.040       .  S
O588        C591   1.258       .  A
O588       Co605   1.912       .  S
O589       C1142   1.261       .  A
O589       Co604   1.975       .  S
C590       O1141   1.261   1_455  A
C590       C1039   1.498       .  S
C591       O1687   1.288   1_455  A
C591       C1016   1.481       .  S
C592        C986   1.474       .  S
C593        C976   1.487       .  S
O594        C607   1.232       .  A
O594       Co602   1.935       .  S
O595        C608   1.271       .  A
O595       Co603   2.036   1_565  S
O596       C1713   1.261       .  A
O596       Co604   2.013       .  S
O597       C1162   1.258       .  A
O597       Co605   2.010       .  S
O598        C610   1.252       .  A
O598       Co603   1.968       .  S
O599        C609   1.238       .  A
O600        C607   1.251       .  A
O600       Co605   2.056       .  S
O601        C608   1.254       .  A
O601       Co604   1.960       .  S
Co602       O606   2.075       .  S
Co603      O1158   2.154   1_545  S
Co604      O1158   2.145       .  S
Co605       O606   2.068       .  S
O606      Co1155   2.154   1_455  S
O606      Co1156   2.145   1_455  S
C607        C996   1.472       .  S
C608        C966   1.487       .  S
C609       O1700   1.261   1_455  A
C609       C2110   1.465       .  S
C610       O1149   1.258       .  A
C610       C1029   1.476       .  S
O611        C619   1.286       .  A
O611       Co631   2.025   1_556  S
O612        C620   1.267       .  A
O612       Co632   2.019       .  S
O613        C621   1.252       .  A
O613       Co633   1.970       .  S
O614        C622   1.280       .  A
O614       Co634   1.939       .  S
O615        C621   1.263       .  A
O615       Co632   1.993       .  S
O616        C622   1.275       .  A
O616       Co631   2.006       .  S
O617        C620   1.253       .  A
O617      Co1738   1.969   1_556  S
O618        C619   1.281       .  A
O618      Co1737   1.952   1_455  S
C619        C956   1.480       .  S
C620       C1089   1.491       .  S
C621        C909   1.460       .  S
C622        C936   1.478       .  S
O623        C636   1.259       .  A
O623       Co631   1.984       .  S
O624        C637   1.254       .  A
O624       Co632   1.924       .  S
O625       C1742   1.228       .  A
O625       Co633   1.964   1_554  S
O626        C639   1.285       .  A
O626      Co1738   2.094       .  S
O627        C639   1.254       .  A
O627       Co632   1.954   1_554  S
O628        C638   1.246       .  A
O628       Co631   2.020       .  S
O629        C636   1.257       .  A
O629       Co634   1.958       .  S
O630        C637   1.275       .  A
O630       Co633   2.014       .  S
Co631      O1739   2.226   1_455  S
Co632       O635   2.094   1_556  S
Co633      O1722   1.952       .  S
Co633       O635   1.940   1_556  S
Co634      O1721   1.969   1_554  S
Co634      O1730   2.094   1_455  S
Co634      O1739   1.995   1_455  S
O635      Co1735   2.226       .  S
O635      Co1738   1.995       .  S
C636        C916   1.472       .  S
C637        C926   1.460       .  S
C638       O1729   1.228   1_455  A
C638       C1099   1.481   1_455  S
C639        C946   1.503       .  S
O640        C648   1.271       .  A
O640      Co1764   2.005   1_455  S
O641        C649   1.282       .  A
O641      Co1765   2.009       .  S
O642        C650   1.272       .  A
O642       Co662   1.896       .  S
O643        C651   1.260       .  A
O643       Co663   1.929       .  S
O644        C650   1.312       .  A
O644       Co661   2.123   1_455  S
O645        C651   1.282       .  A
O645       Co660   2.035       .  S
O646        C649   1.259       .  A
O646       Co663   1.977       .  S
O647        C648   1.274       .  A
O647       Co662   1.991       .  S
C648        C896   1.487       .  S
C649       C1009   1.459       .  S
C650        C876   1.473       .  S
C651        C906   1.457       .  S
O652        C665   1.245       .  A
O652       Co660   1.928       .  S
O653        C666   1.257       .  A
O653       Co661   1.877   1_455  S
O654        C667   1.264       .  A
O654       Co662   2.039       .  S
O655        C668   1.249       .  A
O655       Co663   1.954       .  S
O656        C668   1.264       .  A
O656      Co1765   2.028       .  S
O657       C1771   1.246       .  A
O657       Co660   1.950       .  S
O658        C665   1.258       .  A
O658       Co663   1.985       .  S
O659        C666   1.293       .  A
O659       Co662   2.113       .  S
Co660      O1744   2.005       .  S
Co660       O664   2.022       .  S
Co661      O1745   2.009   1_655  S
Co661      O1760   2.028       .  S
Co661      O1768   1.984       .  S
Co662      O1768   2.048   1_455  S
Co663       O664   2.055       .  S
O664      Co1765   1.984       .  S
O664      Co1766   2.048       .  S
C665        C866   1.451       .  S
C666        C919   1.470       .  S
C667       O1761   1.246   1_455  A
C667       C1019   1.480       .  S
C668        C886   1.481       .  S
O669        C677   1.260       .  A
O669       Co689   2.045       .  S
O670        C678   1.274       .  A
O670       Co690   2.062   1_554  S
O671        C679   1.237       .  A
O671       Co691   1.893       .  S
O672        C680   1.256       .  A
O672       Co692   1.956       .  S
O673        C679   1.270       .  A
O673       Co690   2.024       .  S
O674        C680   1.278       .  A
O674       Co689   2.052       .  S
O675        C678   1.269       .  A
O676       Co691   1.932   1_554  S
C677       C1079   1.471       .  S
C678        C846   1.486       .  S
C679        C939   1.479       .  S
C680        C836   1.485       .  S
O681        C694   1.243       .  A
O681       Co689   1.916       .  S
O682        C695   1.277       .  A
O682       Co690   1.993       .  S
O683        C696   1.274       .  A
O684       Co692   2.023   1_556  S
O685        C697   1.280       .  A
O685       Co690   1.993       .  S
O686        C696   1.254       .  A
O686       Co689   1.961   1_556  S
O687        C694   1.263       .  A
O687       Co692   2.006       .  S
O688        C695   1.283       .  A
O688       Co691   2.030       .  S
Co690       O693   2.098   1_565  S
Co691       O693   2.021   1_565  S
C694        C929   1.452       .  S
C695        C826   1.499       .  S
C696        C856   1.503       .  S
C697       C1069   1.506       .  S
O698        C706   1.282       .  A
O698       Co718   2.064       .  S
O699        C707   1.270       .  A
O699       Co719   2.033       .  S
O700        C708   1.263   1_545  A
O700       Co720   1.958       .  S
O701        C709   1.248       .  A
O701       Co721   1.937       .  S
O702        C708   1.286       .  A
O702       Co719   2.073       .  S
O703        C709   1.258       .  A
O703       Co718   2.002       .  S
O704       Co721   1.948       .  S
O705        C706   1.275       .  A
C706        C816   1.487       .  S
C707        C989   1.479       .  S
C708        C829   1.502       .  S
C709        C869   1.450       .  S
O710        C723   1.266       .  A
O710       Co718   1.955       .  S
O711        C724   1.244       .  A
O711       Co719   1.935       .  S
O712       Co720   2.067   1_565  S
O713        C726   1.270       .  A
O714        C726   1.258       .  A
O714       Co719   1.966       .  S
O715        C725   1.269       .  A
O715       Co718   1.933       .  S
O716        C723   1.284       .  A
O716       Co721   2.048       .  S
O717        C724   1.266       .  A
O717       Co720   2.030   1_565  S
Co719       O722   2.029       .  S
Co720       O722   2.062   1_545  S
C723        C839   1.484       .  S
C724        C879   1.458       .  S
C725        C999   1.477       .  S
C726        C806   1.487       .  S
O727        C735   1.263       .  A
O727       Co747   1.977   1_554  S
O728        C736   1.251       .  A
O728       Co748   1.978       .  S
O729        C737   1.268       .  A
O729       Co749   2.013       .  S
O730        C738   1.299       .  A
O730       Co750   2.099       .  S
O731        C737   1.251       .  A
O731       Co748   1.928       .  S
O732        C738   1.264       .  A
O732       Co747   1.902       .  S
O733        C736   1.259   1_556  A
O733       Co750   2.018       .  S
O734        C735   1.286       .  A
O734       Co749   2.068       .  S
C735       C1059   1.508       .  S
C736        C849   1.478       .  S
C737        C796   1.457       .  S
C738        C959   1.481       .  S
O739        C752   1.299       .  A
O739       Co747   2.100       .  S
O740        C753   1.276       .  A
O740       Co748   2.048       .  S
O741        C754   1.252       .  A
O741       Co749   1.970   1_556  S
O742        C755   1.264       .  A
O742       Co750   1.978       .  S
O743        C755   1.276   1_554  A
O743       Co748   2.026       .  S
O744        C754   1.266       .  A
O744       Co747   2.046       .  S
O745        C752   1.261       .  A
O745       Co750   1.867       .  S
O746        C753   1.263       .  A
O746       Co749   1.977       .  S
Co747       O751   2.033   1_556  S
Co748       O751   2.044       .  S
Co749       O751   2.051       .  S
Co750       O751   2.015   1_556  S
C752        C786   1.464       .  S
C753        C949   1.498       .  S
C754        C859   1.501       .  S
C755       C1046   1.469       .  S
O756        C764   1.254       .  A
O756       Co776   1.978       .  S
O757        C765   1.263       .  A
O757       Co777   1.968       .  S
O758        C766   1.268       .  A
O758       Co778   2.031       .  S
O759        C767   1.248       .  A
O759       Co779   1.970       .  S
O760        C766   1.254       .  A
O760       Co777   1.953       .  S
O761        C767   1.243       .  A
O761       Co776   1.963       .  S
O762        C765   1.275       .  A
O762       Co779   2.040       .  S
O763        C764   1.259       .  A
O763       Co778   1.985       .  S
C764        C979   1.477       .  S
C765        C809   1.485       .  S
C766        C899   1.480       .  S
C767        C799   1.457       .  S
O768        C781   1.303       .  A
O768       Co776   2.065       .  S
O769        C782   1.273       .  A
O769       Co777   2.014       .  S
O770        C783   1.291       .  A
O770       Co778   2.090       .  S
O771        C784   1.253       .  A
O771       Co779   1.994       .  S
O772        C784   1.262       .  A
O772       Co777   2.012       .  S
O773        C783   1.261       .  A
O773       Co776   1.864       .  S
O774        C781   1.275       .  A
O774       Co779   1.907       .  S
O775        C782   1.255       .  A
O775       Co778   1.943       .  S
Co776       O780   2.050       .  S
Co777       O780   2.074       .  S
Co778       O780   2.142       .  S
Co779       O780   1.941       .  S
C781        C889   1.479       .  S
C782        C789   1.463       .  S
C783        C819   1.478       .  S
C784        C969   1.483       .  S
C785        C786   1.399       .  A
C785        C790   1.394       .  A
C785        H791   1.084       .  S
C786        C787   1.407       .  A
C787        C788   1.387       .  A
C787        H792   1.082       .  S
C788        C789   1.397       .  A
C788        H793   1.084       .  S
C789        C790   1.408       .  A
C790        H794   1.082       .  S
C795        C796   1.405       .  A
C795        C800   1.381       .  A
C795        H801   1.084       .  S
C796        C797   1.399       .  A
C797        C798   1.395       .  A
C797        H802   1.082       .  S
C798        C799   1.407       .  A
C798        H803   1.084       .  S
C799        C800   1.396       .  A
C800        H804   1.083       .  S
C805        C806   1.404       .  A
C805        C810   1.396       .  A
C805        H811   1.083       .  S
C806        C807   1.409       .  A
C807        C808   1.408       .  A
C807        H812   1.081       .  S
C808        C809   1.406       .  A
C808        H813   1.083       .  S
C809        C810   1.406       .  A
C810        H814   1.083       .  S
C815        C816   1.406       .  A
C815        C820   1.376       .  A
C815        H821   1.075       .  S
C816        C817   1.407       .  A
C817        C818   1.415       .  A
C817        H822   1.083       .  S
C818        C819   1.414       .  A
C818        H823   1.082       .  S
C819        C820   1.393       .  A
C820        H824   1.084       .  S
C825        C830   1.405       .  A
C825        H831   1.083       .  S
C826        C827   1.412       .  A
C827        C828   1.415       .  A
C827        H832   1.083       .  S
C828        C829   1.408       .  A
C828        H833   1.082       .  S
C830        H834   1.084       .  S
C835        C836   1.410       .  A
C835        C840   1.401       .  A
C836        C837   1.402       .  A
C837        C838   1.407       .  A
C837        H842   1.083       .  S
C838        C839   1.411       .  A
C838        H843   1.083       .  S
C839        C840   1.400       .  A
C845        C846   1.404       .  A
C845        C850   1.406       .  A
C845        H851   1.082       .  S
C846        C847   1.411       .  A
C847        C848   1.402       .  A
C847        H852   1.080       .  S
C848        C849   1.399       .  A
C848        H853   1.083       .  S
C849        C850   1.407       .  A
C850        H854   1.083       .  S
C855        C856   1.411       .  A
C855        C860   1.415       .  A
C855        H861   1.079       .  S
C856        C857   1.407       .  A
C857        C858   1.400       .  A
C857        H862   1.083       .  S
C858        C859   1.408       .  A
C858        H863   1.083       .  S
C859        C860   1.409       .  A
C860        H864   1.083       .  S
C865        C866   1.389       .  A
C865        C870   1.387       .  A
C865        H871   1.083       .  S
C866        C867   1.407       .  A
C867        C868   1.390       .  A
C867        H872   1.084       .  S
C868        C869   1.393       .  A
C868        H873   1.083       .  S
C869        C870   1.410       .  A
C870        H874   1.081       .  S
C875        C876   1.398       .  A
C875        C880   1.389       .  A
C875        H881   1.079       .  S
C876        C877   1.404       .  A
C877        C878   1.405       .  A
C877        H882   1.082       .  S
C878        C879   1.404       .  A
C878        H883   1.083       .  S
C879        C880   1.403       .  A
C880        H884   1.085       .  S
C885        C886   1.407       .  A
C885        C890   1.387       .  A
C885        H891   1.083       .  S
C886        C887   1.405       .  A
C887        C888   1.407       .  A
C887        H892   1.083       .  S
C888        C889   1.410       .  A
C888        H893   1.083       .  S
C889        C890   1.400       .  A
C890        H894   1.083       .  S
C895        C896   1.399       .  A
C895        C900   1.399       .  A
C895        H901   1.077       .  S
C896        C897   1.413       .  A
C897        C898   1.402       .  A
C897        H902   1.083       .  S
C898        C899   1.401       .  A
C898        H903   1.083       .  S
C899        C900   1.407       .  A
C900        H904   1.083       .  S
C905       C2010   1.399   1_455  A
C905        C910   1.398       .  A
C905        H911   1.083       .  S
C906       C2009   1.399       .  A
C906        C907   1.403       .  A
C907        C908   1.387       .  A
C907        H912   1.084       .  S
C908        C909   1.398       .  A
C908        H913   1.083       .  S
C909       C2014   1.408       .  A
C910       C2013   1.408   1_455  A
C910        H914   1.083       .  S
C915        C916   1.408       .  A
C915        C920   1.404       .  A
C915        H921   1.083       .  S
C916       C2021   1.401   1_455  A
C917       C2020   1.401       .  A
C917        C918   1.386       .  A
C917        H922   1.084       .  S
C918       C2023   1.404       .  A
C918        H923   1.083       .  S
C919       C2022   1.404   1_455  A
C919        C920   1.403       .  A
C920        H924   1.083       .  S
C925        C926   1.412   1_554  A
C925        C930   1.389       .  A
C925        H931   1.083       .  S
C926        C927   1.392       .  A
C927        C928   1.395       .  A
C927        H932   1.083       .  S
C928        C929   1.414   1_556  A
C928        H933   1.083       .  S
C929        C930   1.390       .  A
C930        H934   1.083       .  S
C935        C936   1.389       .  A
C935        C940   1.396       .  A
C935        H941   1.083       .  S
C936        C937   1.419   1_554  A
C937        C938   1.403       .  A
C937        H942   1.080       .  S
C938        C939   1.393       .  A
C938        H943   1.082       .  S
C939        C940   1.422   1_556  A
C940        H944   1.084       .  S
C945        C946   1.411       .  A
C945        C950   1.419       .  A
C945        H951   1.080       .  S
C946        C947   1.411       .  A
C947        C948   1.402       .  A
C947        H952   1.084       .  S
C948        C949   1.402       .  A
C948        H953   1.084       .  S
C949        C950   1.411       .  A
C950        H954   1.083       .  S
C955        C956   1.403       .  A
C955        C960   1.405       .  A
C955        H961   1.082       .  S
C956        C957   1.409       .  A
C957        C958   1.394       .  A
C957        H962   1.081       .  S
C958        C959   1.399       .  A
C958        H963   1.083       .  S
C959        C960   1.411       .  A
C960        H964   1.083       .  S
C965        C966   1.408       .  A
C965        C970   1.399       .  A
C965        H971   1.082       .  S
C966        C967   1.406       .  A
C967        C968   1.400       .  A
C967        H972   1.082       .  S
C968        C969   1.406       .  A
C968        H973   1.083       .  S
C969        C970   1.405       .  A
C970        H974   1.083       .  S
C975        C976   1.406       .  A
C975        C980   1.399       .  A
C975        H981   1.083       .  S
C976        C977   1.409       .  A
C977        C978   1.402       .  A
C977        H982   1.080       .  S
C978        C979   1.398       .  A
C978        H983   1.081       .  S
C979        C980   1.406       .  A
C980        H984   1.084       .  S
C985        C990   1.400       .  A
C985        H991   1.082       .  S
C986        C987   1.399   1_565  A
C987        C988   1.393       .  A
C987        H992   1.083       .  S
C988        C989   1.410   1_545  A
C988        H993   1.083       .  S
C990        H994   1.083       .  S
C995        C996   1.405       .  A
C995       C1000   1.407       .  A
C995       H1001   1.081       .  S
C996        C997   1.403       .  A
C997        C998   1.384       .  A
C997       H1002   1.085       .  S
C998        C999   1.402       .  A
C998       H1003   1.083       .  S
C999       C1000   1.410       .  A
C1000      H1004   1.083       .  S
C1005      C2110   1.411       .  A
C1005      C1010   1.395       .  A
C1005      H1011   1.083       .  S
C1006      C1713   1.465       .  S
C1006      C2109   1.411       .  A
C1006      C1007   1.397       .  A
C1007      C1008   1.392       .  A
C1007      H1012   1.083       .  S
C1008      C1009   1.403       .  A
C1008      H1013   1.079       .  S
C1009      C2114   1.392       .  A
C1010      C2113   1.392   1_455  A
C1010      H1014   1.080       .  S
C1015      C2120   1.403       .  A
C1015      C1020   1.389       .  A
C1015      H1021   1.082       .  S
C1016      C2119   1.403   1_455  A
C1016      C1017   1.408       .  A
C1017      C1018   1.407       .  A
C1017      H1022   1.083       .  S
C1018      C1019   1.405       .  A
C1018      H1023   1.081       .  S
C1019      C2124   1.405   1_455  A
C1020      C2123   1.405       .  A
C1020      H1024   1.083       .  S
C1025      C1026   1.407   1_565  A
C1025      C1030   1.397       .  A
C1025      H1031   1.083       .  S
C1026      C1579   1.408       .  A
C1027      C1578   1.408       .  A
C1027      C1028   1.406       .  A
C1027      H1032   1.082       .  S
C1028      C1581   1.405       .  A
C1028      H1033   1.083       .  S
C1029      C1580   1.405       .  A
C1029      C1030   1.402   1_545  A
C1030      H1034   1.083       .  S
C1035      C1036   1.409       .  A
C1035      C1040   1.407       .  A
C1035      H1041   1.083       .  S
C1036      C1589   1.409   1_455  A
C1037      C1588   1.409       .  A
C1037      C1038   1.405       .  A
C1037      H1042   1.083       .  S
C1038      C1591   1.409       .  A
C1038      H1043   1.083       .  S
C1039      C1590   1.409   1_455  A
C1039      C1040   1.408       .  A
C1040      H1044   1.083       .  S
C1045      C1046   1.408       .  A
C1045      C1050   1.404       .  A
C1045      H1051   1.083       .  S
C1046      C1047   1.395       .  A
C1047      C1048   1.395       .  A
C1047      H1052   1.083       .  S
C1048      C1049   1.412       .  A
C1048      H1053   1.084       .  S
C1049      C1050   1.399       .  A
C1050      H1054   1.081       .  S
C1055      C1056   1.404       .  A
C1055      C1060   1.413       .  A
C1055      H1061   1.081       .  S
C1056      C1057   1.412       .  A
C1057      C1058   1.406       .  A
C1057      H1062   1.084       .  S
C1058      C1059   1.405       .  A
C1058      H1063   1.083       .  S
C1059      C1060   1.417       .  A
C1060      H1064   1.083       .  S
C1065      C1070   1.412   1_554  A
C1065      H1071   1.080       .  S
C1066      C1067   1.393       .  A
C1067      C1068   1.402       .  A
C1067      H1072   1.082       .  S
C1068      H1073   1.068       .  S
C1069      C1070   1.401       .  A
C1070      H1074   1.082       .  S
C1075      C1076   1.415   1_545  A
C1075      H1081   1.084       .  S
C1076      C1077   1.394       .  A
C1077      H1082   1.081       .  S
C1078      C1079   1.415   1_556  A
C1078      H1083   1.083       .  S
C1079      C1080   1.394   1_554  A
C1080      H1084   1.083   1_556  S
C1085      C1086   1.405       .  A
C1085      C1090   1.413   1_554  A
C1085      H1091   1.082       .  S
C1086      C2191   1.413   1_454  A
C1087      C2190   1.413   1_556  A
C1087      C1088   1.390       .  A
C1087      H1092   1.083       .  S
C1088      C1089   1.398       .  A
C1088      H1093   1.083       .  S
C1089      C2194   1.415       .  A
C1090      C2193   1.415       .  A
C1090      H1094   1.080   1_556  S
C1095      C1096   1.398       .  A
C1095      C1100   1.401       .  A
C1095      H1101   1.082       .  S
C1096      C2201   1.408       .  A
C1097      C2200   1.408   1_455  A
C1097      C1098   1.396   1_556  A
C1097      H1102   1.083       .  S
C1098      C1099   1.401   1_455  A
C1098      H1103   1.083       .  S
C1099      C2204   1.410   1_554  A
C1100      C2203   1.410   1_556  A
C1100      H1104   1.075   1_556  S
O1105      C1113   1.280       .  A
O1106      C1114   1.240       .  A
O1107      C1115   1.272       .  A
O1107     Co1127   2.048       .  S
O1108      C1116   1.286   1_545  A
O1108     Co1128   2.043       .  S
O1109      C1115   1.249       .  A
O1109     Co1126   1.932       .  S
O1110      C1116   1.275       .  A
O1110     Co1125   1.973   1_565  S
O1111      C1114   1.275       .  A
O1111     Co1680   2.092       .  S
O1112      C1665   1.274       .  A
O1112     Co1127   2.036   1_554  S
C1113      O1664   1.274   1_545  A
C1113      C1618   1.493   1_545  S
C1114      C1638   1.495       .  S
C1115      C1601   1.476       .  S
C1116      C1588   1.498       .  S
O1117      C1130   1.276       .  A
O1117     Co1125   2.065       .  S
O1118      C1131   1.279   1_655  A
O1118     Co1126   2.023       .  S
O1119      C1132   1.277       .  A
O1119     Co1679   1.948       .  S
O1120      C1685   1.233   1_545  A
O1120     Co1128   1.937   1_556  S
O1121      C1133   1.271       .  A
O1122      C1132   1.277   1_455  A
O1123      C1130   1.247       .  A
O1123     Co1128   1.949       .  S
O1124      C1131   1.271       .  A
O1124     Co1127   1.980   1_455  S
Co1126     O1681   2.018   1_655  S
Co1127     O1671   1.948       .  S
Co1127     O1681   2.012   1_655  S
Co1128     O1663   2.092   1_545  S
O1129     Co1678   2.018   1_455  S
O1129     Co1679   2.012   1_465  S
C1130      C1608   1.494       .  S
C1131      C1578   1.487       .  S
C1132      C1648   1.472       .  S
C1133      O1672   1.233       .  A
C1133      C1628   1.470       .  S
O1134      C1142   1.273       .  A
O1134     Co1154   2.034       .  S
O1135     Co1707   2.065       .  S
O1136      C1144   1.252       .  A
O1136     Co1156   2.009       .  S
O1137      C1145   1.255       .  A
O1137     Co1157   1.970       .  S
O1138      C1144   1.241       .  A
O1138     Co1155   1.948       .  S
O1139      C1145   1.273       .  A
O1139     Co1154   2.040   1_545  S
O1140      C1143   1.258       .  A
O1140     Co1157   1.912       .  S
O1141     Co1156   1.975       .  S
C1142      C1591   1.498       .  S
C1143      C1568   1.481       .  S
C1144      C1538   1.474       .  S
C1145      C1528   1.487       .  S
O1146      C1159   1.232       .  A
O1146     Co1154   1.935   1_545  S
O1147      C1160   1.271       .  A
O1147     Co1155   2.036       .  S
O1148     Co1156   2.013       .  S
O1149     Co1157   2.010       .  S
O1150      C1162   1.252   1_655  A
O1150     Co1155   1.968       .  S
O1151      C1161   1.238       .  A
O1151     Co1706   1.927       .  S
O1152      C1159   1.251       .  A
O1152     Co1157   2.056       .  S
O1153      C1160   1.254       .  A
O1153     Co1156   1.960       .  S
Co1154     O1703   1.927       .  S
Co1154     O1158   2.075       .  S
Co1155     O1687   2.065       .  S
Co1157     O1158   2.068   1_545  S
C1159      C1548   1.472       .  S
C1160      C1518   1.486       .  S
C1162      C1581   1.476       .  S
O1163      C1171   1.286       .  A
O1163     Co1183   2.024   1_556  S
O1164      C1172   1.267   1_655  A
O1164     Co1184   2.019       .  S
O1165      C1173   1.252   1_455  A
O1165     Co1185   1.970   1_455  S
O1166      C1174   1.280       .  A
O1166     Co1186   1.939       .  S
O1167      C1173   1.263       .  A
O1167     Co1184   1.994       .  S
O1168      C1174   1.275       .  A
O1168     Co1183   2.006       .  S
O1169      C1172   1.253       .  A
O1170      C1171   1.281       .  A
C1171      C1508   1.480       .  S
C1172      C1641   1.491       .  S
C1173      C1461   1.460       .  S
C1174      C1488   1.478       .  S
O1175      C1188   1.259       .  A
O1175     Co1183   1.984       .  S
O1176      C1189   1.254       .  A
O1176     Co1184   1.924       .  S
O1177     Co1185   1.964   1_554  S
O1178      C1191   1.285       .  A
O1179      C1191   1.254       .  A
O1179     Co1184   1.954   1_554  S
O1180      C1190   1.246       .  A
O1180     Co1183   2.021       .  S
O1181      C1188   1.257       .  A
O1181     Co1186   1.958       .  S
O1182      C1189   1.275       .  A
O1182     Co1185   2.014       .  S
Co1184     O1187   2.094   1_556  S
Co1185     O1187   1.940   1_556  S
C1188      C1468   1.472       .  S
C1189      C1478   1.460       .  S
C1190      C1651   1.481       .  S
C1191      C1498   1.503       .  S
O1192      C1200   1.271       .  A
O1193      C1201   1.282   1_455  A
O1194      C1202   1.272       .  A
O1194     Co1214   1.896       .  S
O1195      C1203   1.260       .  A
O1195     Co1215   1.929       .  S
O1196      C1202   1.312       .  A
O1196     Co1213   2.123       .  S
O1197      C1203   1.282       .  A
O1197     Co1212   2.036       .  S
O1198      C1201   1.259       .  A
O1198     Co1215   1.977       .  S
O1199      C1200   1.274       .  A
O1199     Co1214   1.991       .  S
C1200      C1448   1.487       .  S
C1201      C1561   1.459       .  S
C1202      C1428   1.473       .  S
C1203      C1458   1.457       .  S
O1204      C1217   1.245       .  A
O1204     Co1212   1.928       .  S
O1205      C1218   1.257       .  A
O1205     Co1213   1.877       .  S
O1206      C1219   1.264       .  A
O1206     Co1214   2.040       .  S
O1207      C1220   1.249       .  A
O1207     Co1215   1.954       .  S
O1208      C1220   1.264       .  A
O1209     Co1212   1.950       .  S
O1210      C1217   1.258       .  A
O1210     Co1215   1.985       .  S
O1211      C1218   1.293       .  A
O1211     Co1214   2.113       .  S
Co1212     O1216   2.022       .  S
Co1215     O1216   2.055       .  S
C1217      C1418   1.451       .  S
C1218      C1471   1.471       .  S
C1219      C1571   1.480       .  S
C1220      C1438   1.481       .  S
O1221      C1229   1.260       .  A
O1221     Co1241   2.045       .  S
O1222      C1230   1.275       .  A
O1222     Co1242   2.062   1_554  S
O1223      C1231   1.237       .  A
O1223     Co1243   1.893       .  S
O1224      C1232   1.256   1_565  A
O1224     Co1244   1.956       .  S
O1225      C1231   1.270       .  A
O1225     Co1242   2.025       .  S
O1226      C1232   1.278       .  A
O1226     Co1241   2.052       .  S
O1227      C1230   1.269       .  A
O1227     Co1796   1.968       .  S
O1228      C1781   1.227       .  A
O1228     Co1243   1.932   1_554  S
C1229      O1780   1.227   1_545  A
C1229      C1631   1.471       .  S
C1230      C1398   1.486       .  S
C1231      C1491   1.479       .  S
C1232      C1388   1.485       .  S
O1233      C1246   1.243       .  A
O1233     Co1241   1.916       .  S
O1234      C1247   1.277       .  A
O1234     Co1242   1.992       .  S
O1235      C1248   1.274       .  A
O1235     Co1795   2.063   1_545  S
O1236      C1801   1.271   1_545  A
O1236     Co1244   2.023   1_546  S
O1237      C1249   1.280       .  A
O1237     Co1242   1.993       .  S
O1238      C1248   1.254       .  A
O1238     Co1241   1.961   1_556  S
O1239      C1246   1.263       .  A
O1239     Co1244   2.006   1_545  S
O1240      C1247   1.284       .  A
O1240     Co1243   2.030       .  S
Co1241     O1797   2.110   1_554  S
Co1242     O1245   2.098       .  S
Co1243     O1787   2.063       .  S
Co1243     O1245   2.020       .  S
Co1244     O1779   1.968       .  S
Co1244     O1797   2.036   1_564  S
O1245     Co1793   2.110   1_556  S
O1245     Co1796   2.036   1_556  S
C1246      C1481   1.452       .  S
C1247      C1378   1.499       .  S
C1248      C1408   1.503       .  S
C1249      O1788   1.271       .  A
C1249      C1621   1.506       .  S
O1250      C1258   1.282       .  A
O1250     Co1270   2.065       .  S
O1251      C1259   1.270       .  A
O1251     Co1271   2.033       .  S
O1252      C1260   1.263       .  A
O1252     Co1272   1.958       .  S
O1253      C1261   1.248       .  A
O1253     Co1273   1.937       .  S
O1254      C1260   1.286       .  A
O1254     Co1271   2.073       .  S
O1255      C1261   1.258       .  A
O1255     Co1270   2.002       .  S
O1256      C1811   1.250   1_545  A
O1256     Co1273   1.948       .  S
O1257      C1258   1.275       .  A
O1257     Co1824   1.960       .  S
C1258      C1368   1.487       .  S
C1259      O1808   1.250       .  A
C1259      C1541   1.479       .  S
C1260      C1381   1.502       .  S
C1261      C1421   1.450       .  S
O1262      C1275   1.266   1_565  A
O1262     Co1270   1.955   1_565  S
O1263      C1276   1.244       .  A
O1263     Co1271   1.935       .  S
O1264      C1829   1.287       .  A
O1264     Co1272   2.067       .  S
O1265      C1278   1.270       .  A
O1265     Co1825   2.036       .  S
O1266      C1278   1.258       .  A
O1266     Co1271   1.966       .  S
O1267      C1277   1.269       .  A
O1267     Co1270   1.933       .  S
O1268      C1275   1.284       .  A
O1268     Co1273   2.048       .  S
O1269      C1276   1.266       .  A
O1269     Co1272   2.030       .  S
Co1270     O1826   2.022   1_545  S
Co1271     O1274   2.029       .  S
Co1272     O1809   1.960       .  S
Co1272     O1274   2.062       .  S
Co1273     O1817   2.036   1_545  S
Co1273     O1826   2.032   1_545  S
O1274     Co1822   2.022       .  S
O1274     Co1825   2.032       .  S
C1275      C1391   1.484       .  S
C1276      C1431   1.458       .  S
C1277      O1816   1.287   1_545  A
C1277      C1551   1.477       .  S
C1278      C1358   1.487       .  S
O1279      C1287   1.263       .  A
O1279     Co1299   1.977   1_554  S
O1280      C1288   1.251       .  A
O1280     Co1300   1.977       .  S
O1281      C1289   1.268       .  A
O1281     Co1301   2.013       .  S
O1282      C1290   1.299       .  A
O1282     Co1302   2.099       .  S
O1283      C1289   1.251       .  A
O1283     Co1300   1.928       .  S
O1284      C1290   1.264       .  A
O1284     Co1299   1.903       .  S
O1285      C1288   1.259   1_556  A
O1285     Co1302   2.018       .  S
O1286      C1287   1.286       .  A
O1286     Co1301   2.068       .  S
C1287      C1611   1.508       .  S
C1288      C1401   1.478       .  S
C1289      C1348   1.457       .  S
C1290      C1511   1.481       .  S
O1291      C1304   1.299       .  A
O1291     Co1299   2.100       .  S
O1292      C1305   1.276       .  A
O1292     Co1300   2.048       .  S
O1293      C1306   1.252       .  A
O1293     Co1301   1.970   1_556  S
O1294      C1307   1.264       .  A
O1294     Co1302   1.978       .  S
O1295      C1307   1.276   1_554  A
O1295     Co1300   2.026       .  S
O1296      C1306   1.266       .  A
O1296     Co1299   2.046       .  S
O1297      C1304   1.261       .  A
O1297     Co1302   1.867       .  S
O1298      C1305   1.263       .  A
O1298     Co1301   1.977       .  S
Co1299     O1303   2.033   1_556  S
Co1300     O1303   2.044       .  S
Co1301     O1303   2.051       .  S
Co1302     O1303   2.015   1_556  S
C1304      C1338   1.464       .  S
C1305      C1501   1.497       .  S
C1306      C1411   1.501       .  S
C1307      C1598   1.469       .  S
O1308      C1316   1.254       .  A
O1308     Co1328   1.978       .  S
O1309      C1317   1.263       .  A
O1309     Co1329   1.968       .  S
O1310      C1318   1.268       .  A
O1310     Co1330   2.031       .  S
O1311      C1319   1.248       .  A
O1311     Co1331   1.970       .  S
O1312      C1318   1.254       .  A
O1312     Co1329   1.953       .  S
O1313      C1319   1.243       .  A
O1313     Co1328   1.963       .  S
O1314      C1317   1.275       .  A
O1314     Co1331   2.040       .  S
O1315      C1316   1.259       .  A
O1315     Co1330   1.985       .  S
C1316      C1531   1.477       .  S
C1317      C1361   1.485       .  S
C1318      C1451   1.480       .  S
C1319      C1351   1.457       .  S
O1320      C1333   1.303       .  A
O1320     Co1328   2.065       .  S
O1321      C1334   1.273       .  A
O1321     Co1329   2.014       .  S
O1322      C1335   1.291       .  A
O1322     Co1330   2.090       .  S
O1323      C1336   1.253       .  A
O1323     Co1331   1.994       .  S
O1324      C1336   1.262       .  A
O1324     Co1329   2.012       .  S
O1325      C1335   1.261       .  A
O1325     Co1328   1.864       .  S
O1326      C1333   1.275       .  A
O1326     Co1331   1.907       .  S
O1327      C1334   1.255       .  A
O1327     Co1330   1.943       .  S
Co1328     O1332   2.050       .  S
Co1329     O1332   2.074       .  S
Co1330     O1332   2.142       .  S
Co1331     O1332   1.941       .  S
C1333      C1441   1.479       .  S
C1334      C1341   1.463       .  S
C1335      C1371   1.478       .  S
C1336      C1521   1.483       .  S
C1337      C1338   1.399       .  A
C1337      C1342   1.394       .  A
C1337      H1343   1.084       .  S
C1338      C1339   1.407       .  A
C1339      C1340   1.387       .  A
C1339      H1344   1.082       .  S
C1340      C1341   1.397       .  A
C1340      H1345   1.084       .  S
C1341      C1342   1.408       .  A
C1342      H1346   1.082       .  S
C1347      C1348   1.405       .  A
C1347      C1352   1.381       .  A
C1347      H1353   1.084       .  S
C1348      C1349   1.399       .  A
C1349      C1350   1.395       .  A
C1349      H1354   1.082       .  S
C1350      C1351   1.407       .  A
C1350      H1355   1.084       .  S
C1351      C1352   1.396       .  A
C1352      H1356   1.083       .  S
C1357      C1358   1.404       .  A
C1357      C1362   1.396       .  A
C1357      H1363   1.083       .  S
C1358      C1359   1.409       .  A
C1359      C1360   1.408       .  A
C1359      H1364   1.081       .  S
C1360      C1361   1.406       .  A
C1360      H1365   1.083       .  S
C1361      C1362   1.406       .  A
C1362      H1366   1.083       .  S
C1367      C1368   1.406       .  A
C1367      C1372   1.376       .  A
C1367      H1373   1.075       .  S
C1368      C1369   1.407       .  A
C1369      C1370   1.415       .  A
C1369      H1374   1.083       .  S
C1370      C1371   1.414       .  A
C1370      H1375   1.082       .  S
C1371      C1372   1.393       .  A
C1372      H1376   1.084       .  S
C1377      C1930   1.404   1_545  A
C1377      C1382   1.405       .  A
C1377      H1383   1.083       .  S
C1378      C1929   1.404       .  A
C1378      C1379   1.412       .  A
C1379      C1380   1.415       .  A
C1379      H1384   1.083       .  S
C1380      C1381   1.408       .  A
C1380      H1385   1.082       .  S
C1381      C1934   1.411       .  A
C1382      C1933   1.411   1_545  A
C1382      H1386   1.084       .  S
C1387      C1388   1.410   1_565  A
C1387      C1392   1.401       .  A
C1387      H1945   1.082       .  S
C1388      C1389   1.402       .  A
C1389      C1390   1.407       .  A
C1389      H1394   1.083       .  S
C1390      C1391   1.411       .  A
C1390      H1395   1.083       .  S
C1391      C1392   1.400   1_545  A
C1392      H1948   1.083       .  S
H1393      C1939   1.082       .  S
H1396      C1944   1.083       .  S
C1397      C1398   1.404       .  A
C1397      C1402   1.406       .  A
C1397      H1403   1.082       .  S
C1398      C1399   1.411       .  A
C1399      C1400   1.401       .  A
C1399      H1404   1.080       .  S
C1400      C1401   1.398       .  A
C1400      H1405   1.083       .  S
C1401      C1402   1.407       .  A
C1402      H1406   1.083       .  S
C1407      C1408   1.411       .  A
C1407      C1412   1.415       .  A
C1407      H1413   1.079       .  S
C1408      C1409   1.407       .  A
C1409      C1410   1.400       .  A
C1409      H1414   1.083       .  S
C1410      C1411   1.409       .  A
C1410      H1415   1.083       .  S
C1411      C1412   1.409       .  A
C1412      H1416   1.083       .  S
C1417      C1418   1.389       .  A
C1417      C1422   1.387       .  A
C1417      H1423   1.083       .  S
C1418      C1419   1.407       .  A
C1419      C1420   1.390       .  A
C1419      H1424   1.084       .  S
C1420      C1421   1.393       .  A
C1420      H1425   1.083       .  S
C1421      C1422   1.410       .  A
C1422      H1426   1.081       .  S
C1427      C1428   1.398       .  A
C1427      C1432   1.389       .  A
C1427      H1433   1.079       .  S
C1428      C1429   1.404       .  A
C1429      C1430   1.405       .  A
C1429      H1434   1.082       .  S
C1430      C1431   1.404       .  A
C1430      H1435   1.083       .  S
C1431      C1432   1.403       .  A
C1432      H1436   1.085       .  S
C1437      C1438   1.407       .  A
C1437      C1442   1.387       .  A
C1437      H1443   1.083       .  S
C1438      C1439   1.405       .  A
C1439      C1440   1.407       .  A
C1439      H1444   1.083       .  S
C1440      C1441   1.410       .  A
C1440      H1445   1.083       .  S
C1441      C1442   1.400       .  A
C1442      H1446   1.083       .  S
C1447      C1448   1.399       .  A
C1447      C1452   1.399       .  A
C1447      H1453   1.077       .  S
C1448      C1449   1.413       .  A
C1449      C1450   1.402       .  A
C1449      H1454   1.083       .  S
C1450      C1451   1.401       .  A
C1450      H1455   1.083       .  S
C1451      C1452   1.407       .  A
C1452      H1456   1.083       .  S
C1457      C1462   1.398       .  A
C1457      H1463   1.083       .  S
C1458      C1459   1.403       .  A
C1459      C1460   1.387       .  A
C1459      H1464   1.084       .  S
C1460      C1461   1.398       .  A
C1460      H1465   1.083       .  S
C1462      H1466   1.083       .  S
C1467      C1468   1.408       .  A
C1467      C1472   1.404       .  A
C1467      H1473   1.083       .  S
C1469      C1470   1.386       .  A
C1469      H1474   1.084       .  S
C1470      H1475   1.083       .  S
C1471      C1472   1.403       .  A
C1472      H1476   1.083       .  S
C1477      C1478   1.412   1_554  A
C1477      C1482   1.389       .  A
C1477      H1483   1.083       .  S
C1478      C1479   1.392       .  A
C1479      C1480   1.395       .  A
C1479      H1484   1.083       .  S
C1480      C1481   1.414   1_556  A
C1480      H1485   1.083       .  S
C1481      C1482   1.390       .  A
C1482      H1486   1.083       .  S
C1487      C1488   1.389       .  A
C1487      C1492   1.396       .  A
C1487      H1493   1.083       .  S
C1488      C1489   1.419   1_554  A
C1489      C1490   1.403       .  A
C1489      H1494   1.081       .  S
C1490      C1491   1.393       .  A
C1490      H1495   1.082       .  S
C1491      C1492   1.422   1_556  A
C1492      H1496   1.084       .  S
C1497      C1498   1.411       .  A
C1497      C1502   1.419       .  A
C1497      H1503   1.080       .  S
C1498      C1499   1.411       .  A
C1499      C1500   1.402       .  A
C1499      H1504   1.084       .  S
C1500      C1501   1.402       .  A
C1500      H1505   1.084       .  S
C1501      C1502   1.411       .  A
C1502      H1506   1.083       .  S
C1507      C1508   1.403       .  A
C1507      C1512   1.405       .  A
C1507      H1513   1.082       .  S
C1508      C1509   1.409       .  A
C1509      C1510   1.394       .  A
C1509      H1514   1.081       .  S
C1510      C1511   1.399       .  A
C1510      H1515   1.083       .  S
C1511      C1512   1.411       .  A
C1512      H1516   1.083       .  S
C1517      C1518   1.408       .  A
C1517      C1522   1.399       .  A
C1517      H1523   1.082       .  S
C1518      C1519   1.406       .  A
C1519      C1520   1.400       .  A
C1519      H1524   1.082       .  S
C1520      C1521   1.406       .  A
C1520      H1525   1.083       .  S
C1521      C1522   1.405       .  A
C1522      H1526   1.083       .  S
C1527      C1528   1.406       .  A
C1527      C1532   1.399       .  A
C1527      H1533   1.083       .  S
C1528      C1529   1.409       .  A
C1529      C1530   1.402       .  A
C1529      H1534   1.080       .  S
C1530      C1531   1.398       .  A
C1530      H1535   1.081       .  S
C1531      C1532   1.406       .  A
C1532      H1536   1.084       .  S
C1537      C2090   1.408       .  A
C1537      C1542   1.400       .  A
C1537      H1543   1.082       .  S
C1538      C2089   1.408       .  A
C1538      C1539   1.399       .  A
C1539      C1540   1.393       .  A
C1539      H1544   1.083       .  S
C1540      C1541   1.410       .  A
C1540      H1545   1.083       .  S
C1541      C2094   1.403       .  A
C1542      C2093   1.403       .  A
C1542      H1546   1.083       .  S
C1547      C1548   1.405       .  A
C1547      C1552   1.407       .  A
C1547      H1553   1.081       .  S
C1548      C1549   1.403       .  A
C1549      C1550   1.384       .  A
C1549      H1554   1.085   1_545  S
C1550      C1551   1.402       .  A
C1550      H1555   1.083   1_545  S
C1551      C1552   1.410       .  A
C1552      H1556   1.083       .  S
C1557      C1562   1.395       .  A
C1557      H1563   1.083       .  S
C1558      C1559   1.397   1_455  A
C1559      C1560   1.392       .  A
C1559      H1564   1.083       .  S
C1560      C1561   1.403       .  A
C1560      H1565   1.079       .  S
C1562      H1566   1.080       .  S
C1567      C1572   1.389       .  A
C1567      H1573   1.082       .  S
C1568      C1569   1.408       .  A
C1569      C1570   1.407       .  A
C1569      H1574   1.083       .  S
C1570      C1571   1.405       .  A
C1570      H1575   1.081       .  S
C1572      H1576   1.083       .  S
C1577      C1578   1.407       .  A
C1577      C1582   1.397       .  A
C1577      H1583   1.083   1_455  S
C1579      C1580   1.406       .  A
C1579      H1584   1.082       .  S
C1580      H1585   1.083       .  S
C1581      C1582   1.402       .  A
C1582      H1586   1.083   1_455  S
C1587      C1588   1.409       .  A
C1587      C1592   1.407       .  A
C1587      H1593   1.083       .  S
C1589      C1590   1.405       .  A
C1589      H1594   1.083       .  S
C1590      H1595   1.083       .  S
C1591      C1592   1.408       .  A
C1592      H1596   1.083       .  S
C1597      C1598   1.408       .  A
C1597      C1602   1.404       .  A
C1597      H1603   1.083       .  S
C1598      C1599   1.395       .  A
C1599      C1600   1.395       .  A
C1599      H1604   1.083       .  S
C1600      C1601   1.412       .  A
C1600      H1605   1.084       .  S
C1601      C1602   1.399       .  A
C1602      H1606   1.081       .  S
C1607      C1608   1.404       .  A
C1607      C1612   1.413       .  A
C1607      H1613   1.081       .  S
C1608      C1609   1.412       .  A
C1609      C1610   1.406       .  A
C1609      H1614   1.084       .  S
C1610      C1611   1.405       .  A
C1610      H1615   1.083       .  S
C1611      C1612   1.417       .  A
C1612      H1616   1.083       .  S
C1617      C2170   1.416       .  A
C1617      C1622   1.412   1_554  A
C1617      H1623   1.080       .  S
C1618      C2169   1.416       .  A
C1618      C1619   1.393   1_565  A
C1619      C1620   1.402       .  A
C1619      H1624   1.082       .  S
C1620      C2173   1.416   1_544  A
C1620      H1625   1.068       .  S
C1621      C2172   1.416   1_556  A
C1621      C1622   1.401       .  A
C1622      H1626   1.082       .  S
C1627      C1628   1.415       .  A
C1627      C2184   1.393       .  A
C1627      H1633   1.084       .  S
C1628      C1629   1.394       .  A
C1629      C2182   1.391       .  A
C1629      H1634   1.081       .  S
C1630      C2181   1.391       .  A
C1630      C1631   1.415   1_566  A
C1630      H1635   1.083       .  S
C1631      C1632   1.394   1_554  A
C1632      C2179   1.393       .  A
C1632      H1636   1.083   1_556  S
C1637      C1638   1.405       .  A
C1637      C1642   1.413   1_554  A
C1637      H1643   1.082       .  S
C1639      C1640   1.390       .  A
C1639      H1644   1.083       .  S
C1640      C1641   1.398   1_655  A
C1640      H1645   1.083       .  S
C1642      H1646   1.080   1_556  S
C1647      C1648   1.398       .  A
C1647      C1652   1.401       .  A
C1647      H1653   1.082       .  S
C1649      C1650   1.396   1_556  A
C1649      H1654   1.083       .  S
C1650      C1651   1.401       .  A
C1650      H1655   1.083       .  S
C1652      H1656   1.075   1_556  S
O1657      C1665   1.280       .  A
O1658      C1666   1.240       .  A
O1659      C1667   1.272       .  A
O1659     Co1679   2.048   1_565  S
O1660      C1668   1.286       .  A
O1660     Co1680   2.043       .  S
O1661      C1667   1.249       .  A
O1661     Co1678   1.932       .  S
O1662      C1668   1.275       .  A
O1662     Co1677   1.973       .  S
O1663      C1666   1.275       .  A
O1664     Co1679   2.036   1_564  S
C1665      C2170   1.493       .  S
C1666      C2190   1.495       .  S
C1667      C2153   1.476       .  S
C1668      C2140   1.499       .  S
O1669      C1682   1.276       .  A
O1669     Co1677   2.065       .  S
O1670      C1683   1.279   1_655  A
O1670     Co1678   2.023       .  S
O1671      C1684   1.277       .  A
O1672     Co1680   1.937   1_556  S
O1673      C1685   1.271       .  A
O1674      C1684   1.277   1_455  A
O1675      C1682   1.247       .  A
O1675     Co1680   1.949       .  S
O1676      C1683   1.271   1_545  A
O1676     Co1679   1.980   1_455  S
C1682      C2160   1.494       .  S
C1683      C2130   1.487   1_565  S
C1684      C2200   1.472       .  S
C1685      C2180   1.470       .  S
O1686      C1694   1.273       .  A
O1686     Co1706   2.034       .  S
O1688      C1696   1.252       .  A
O1688     Co1708   2.009       .  S
O1689      C1697   1.255       .  A
O1689     Co1709   1.970       .  S
O1690      C1696   1.241   1_545  A
O1690     Co1707   1.948       .  S
O1691      C1697   1.273       .  A
O1691     Co1706   2.040       .  S
O1692      C1695   1.258       .  A
O1692     Co1709   1.912       .  S
O1693     Co1708   1.975       .  S
C1694      C2143   1.498       .  S
C1695      C2120   1.481       .  S
C1696      C2090   1.474       .  S
C1697      C2080   1.487       .  S
O1698      C1711   1.232       .  A
O1698     Co1706   1.935       .  S
O1699      C1712   1.271       .  A
O1699     Co1707   2.036   1_565  S
O1700     Co1708   2.013       .  S
O1701     Co1709   2.010       .  S
O1702      C1714   1.252   1_655  A
O1702     Co1707   1.968       .  S
O1703      C1713   1.238       .  A
O1704      C1711   1.251       .  A
O1704     Co1709   2.056       .  S
O1705      C1712   1.254       .  A
O1705     Co1708   1.960       .  S
Co1706     O1710   2.075       .  S
Co1709     O1710   2.068       .  S
C1711      C2100   1.472       .  S
C1712      C2070   1.487       .  S
C1714      C2133   1.476       .  S
O1715      C1723   1.286       .  A
O1715     Co1735   2.025   1_556  S
O1716      C1724   1.267   1_655  A
O1716     Co1736   2.019       .  S
O1717      C1725   1.252   1_455  A
O1717     Co1737   1.970   1_455  S
O1718      C1726   1.280       .  A
O1718     Co1738   1.939       .  S
O1719      C1725   1.263       .  A
O1719     Co1736   1.993       .  S
O1720      C1726   1.275       .  A
O1720     Co1735   2.006       .  S
O1721      C1724   1.253       .  A
O1722      C1723   1.281       .  A
C1723      C2060   1.480       .  S
C1724      C2193   1.491       .  S
C1725      C2013   1.460       .  S
C1726      C2040   1.478       .  S
O1727      C1740   1.259       .  A
O1727     Co1735   1.984       .  S
O1728      C1741   1.254       .  A
O1728     Co1736   1.924       .  S
O1729     Co1737   1.964   1_554  S
O1730      C1743   1.285       .  A
O1731      C1743   1.254       .  A
O1731     Co1736   1.954   1_554  S
O1732      C1742   1.246       .  A
O1732     Co1735   2.020       .  S
O1733      C1740   1.257       .  A
O1733     Co1738   1.958       .  S
O1734      C1741   1.275       .  A
O1734     Co1737   2.014       .  S
Co1736     O1739   2.094   1_556  S
Co1737     O1739   1.940   1_556  S
C1740      C2020   1.472       .  S
C1741      C2030   1.460       .  S
C1742      C2203   1.481       .  S
C1743      C2050   1.503       .  S
O1744      C1752   1.271       .  A
O1745      C1753   1.282   1_455  A
O1746      C1754   1.272       .  A
O1746     Co1766   1.896       .  S
O1747      C1755   1.260       .  A
O1747     Co1767   1.929       .  S
O1748      C1754   1.312       .  A
O1748     Co1765   2.123       .  S
O1749      C1755   1.282       .  A
O1749     Co1764   2.035       .  S
O1750      C1753   1.259       .  A
O1750     Co1767   1.977       .  S
O1751      C1752   1.274       .  A
O1751     Co1766   1.991       .  S
C1752      C2000   1.487       .  S
C1753      C2113   1.459       .  S
C1754      C1980   1.473       .  S
C1755      C2010   1.457       .  S
O1756      C1769   1.245       .  A
O1756     Co1764   1.928       .  S
O1757      C1770   1.257       .  A
O1757     Co1765   1.877       .  S
O1758      C1771   1.264       .  A
O1758     Co1766   2.039       .  S
O1759      C1772   1.249       .  A
O1759     Co1767   1.954       .  S
O1760      C1772   1.264       .  A
O1761     Co1764   1.950       .  S
O1762      C1769   1.258       .  A
O1762     Co1767   1.985       .  S
O1763      C1770   1.293       .  A
O1763     Co1766   2.113       .  S
Co1764     O1768   2.022       .  S
Co1767     O1768   2.055       .  S
C1769      C1970   1.451       .  S
C1770      C2023   1.470       .  S
C1771      C2123   1.480       .  S
C1772      C1990   1.481       .  S
O1773      C1781   1.260       .  A
O1773     Co1793   2.045       .  S
O1774      C1782   1.274       .  A
O1774     Co1794   2.062   1_554  S
O1775      C1783   1.237       .  A
O1775     Co1795   1.893       .  S
O1776      C1784   1.256       .  A
O1776     Co1796   1.956       .  S
O1777      C1783   1.270       .  A
O1777     Co1794   2.024       .  S
O1778      C1784   1.278       .  A
O1778     Co1793   2.052       .  S
O1779      C1782   1.269       .  A
O1780     Co1795   1.932   1_554  S
C1781      C2183   1.471       .  S
C1782      C1950   1.486       .  S
C1783      C2043   1.479       .  S
C1784      C1940   1.485       .  S
O1785      C1798   1.243       .  A
O1785     Co1793   1.916       .  S
O1786      C1799   1.277       .  A
O1786     Co1794   1.993       .  S
O1787      C1800   1.274       .  A
O1788     Co1796   2.023   1_556  S
O1789      C1801   1.280       .  A
O1789     Co1794   1.993       .  S
O1790      C1800   1.254       .  A
O1790     Co1793   1.961   1_556  S
O1791      C1798   1.263       .  A
O1791     Co1796   2.006       .  S
O1792      C1799   1.283       .  A
O1792     Co1795   2.030       .  S
Co1794     O1797   2.098   1_565  S
Co1795     O1797   2.021   1_565  S
C1798      C2033   1.452       .  S
C1799      C1930   1.499       .  S
C1800      C1960   1.503       .  S
C1801      C2173   1.506       .  S
O1802      C1810   1.282       .  A
O1802     Co1822   2.064       .  S
O1803      C1811   1.270       .  A
O1803     Co1823   2.033       .  S
O1804      C1812   1.263   1_545  A
O1804     Co1824   1.958       .  S
O1805      C1813   1.248       .  A
O1805     Co1825   1.937       .  S
O1806      C1812   1.286       .  A
O1806     Co1823   2.073       .  S
O1807      C1813   1.258       .  A
O1807     Co1822   2.002       .  S
O1808     Co1825   1.948       .  S
O1809      C1810   1.275       .  A
C1810      C1920   1.487       .  S
C1811      C2093   1.479       .  S
C1812      C1933   1.502       .  S
C1813      C1973   1.450       .  S
O1814      C1827   1.266       .  A
O1814     Co1822   1.955       .  S
O1815      C1828   1.244       .  A
O1815     Co1823   1.935       .  S
O1816     Co1824   2.067   1_565  S
O1817      C1830   1.270       .  A
O1818      C1830   1.258       .  A
O1818     Co1823   1.966       .  S
O1819      C1829   1.269       .  A
O1819     Co1822   1.933       .  S
O1820      C1827   1.284       .  A
O1820     Co1825   2.048       .  S
O1821      C1828   1.266       .  A
O1821     Co1824   2.030   1_565  S
Co1823     O1826   2.029       .  S
Co1824     O1826   2.062   1_545  S
C1827      C1943   1.484       .  S
C1828      C1983   1.458       .  S
C1829      C2103   1.477       .  S
C1830      C1910   1.487       .  S
O1831      C1839   1.263       .  A
O1831     Co1851   1.977   1_554  S
O1832      C1840   1.251       .  A
O1832     Co1852   1.978       .  S
O1833      C1841   1.268       .  A
O1833     Co1853   2.013       .  S
O1834      C1842   1.299       .  A
O1834     Co1854   2.099       .  S
O1835      C1841   1.251       .  A
O1835     Co1852   1.928       .  S
O1836      C1842   1.264       .  A
O1836     Co1851   1.902       .  S
O1837      C1840   1.259   1_556  A
O1837     Co1854   2.018       .  S
O1838      C1839   1.286       .  A
O1838     Co1853   2.068       .  S
C1839      C2163   1.508       .  S
C1840      C1953   1.478       .  S
C1841      C1900   1.457       .  S
C1842      C2063   1.481       .  S
O1843      C1856   1.299       .  A
O1843     Co1851   2.100       .  S
O1844      C1857   1.276       .  A
O1844     Co1852   2.048       .  S
O1845      C1858   1.252       .  A
O1845     Co1853   1.970   1_556  S
O1846      C1859   1.264       .  A
O1846     Co1854   1.978       .  S
O1847      C1859   1.276   1_554  A
O1847     Co1852   2.026       .  S
O1848      C1858   1.266       .  A
O1848     Co1851   2.046       .  S
O1849      C1856   1.261       .  A
O1849     Co1854   1.867       .  S
O1850      C1857   1.263       .  A
O1850     Co1853   1.977       .  S
Co1851     O1855   2.033   1_556  S
Co1852     O1855   2.044       .  S
Co1853     O1855   2.051       .  S
Co1854     O1855   2.015   1_556  S
C1856      C1890   1.464       .  S
C1857      C2053   1.498       .  S
C1858      C1963   1.501       .  S
C1859      C2150   1.469       .  S
O1860      C1868   1.254       .  A
O1860     Co1880   1.978       .  S
O1861      C1869   1.263       .  A
O1861     Co1881   1.968       .  S
O1862      C1870   1.268       .  A
O1862     Co1882   2.031       .  S
O1863      C1871   1.248       .  A
O1863     Co1883   1.970       .  S
O1864      C1870   1.254       .  A
O1864     Co1881   1.953       .  S
O1865      C1871   1.243       .  A
O1865     Co1880   1.963       .  S
O1866      C1869   1.275       .  A
O1866     Co1883   2.040       .  S
O1867      C1868   1.259       .  A
O1867     Co1882   1.985       .  S
C1868      C2083   1.477       .  S
C1869      C1913   1.485       .  S
C1870      C2003   1.480       .  S
C1871      C1903   1.457       .  S
O1872      C1885   1.303       .  A
O1872     Co1880   2.065       .  S
O1873      C1886   1.273       .  A
O1873     Co1881   2.014       .  S
O1874      C1887   1.291       .  A
O1874     Co1882   2.090       .  S
O1875      C1888   1.253       .  A
O1875     Co1883   1.994       .  S
O1876      C1888   1.262       .  A
O1876     Co1881   2.012       .  S
O1877      C1887   1.261       .  A
O1877     Co1880   1.864       .  S
O1878      C1885   1.275       .  A
O1878     Co1883   1.907       .  S
O1879      C1886   1.255       .  A
O1879     Co1882   1.943       .  S
Co1880     O1884   2.050       .  S
Co1881     O1884   2.074       .  S
Co1882     O1884   2.142       .  S
Co1883     O1884   1.941       .  S
C1885      C1993   1.479       .  S
C1886      C1893   1.463       .  S
C1887      C1923   1.478       .  S
C1888      C2073   1.483       .  S
C1889      C1890   1.399       .  A
C1889      C1894   1.394       .  A
C1889      H1895   1.084       .  S
C1890      C1891   1.407       .  A
C1891      C1892   1.387       .  A
C1891      H1896   1.082       .  S
C1892      C1893   1.397       .  A
C1892      H1897   1.084       .  S
C1893      C1894   1.408       .  A
C1894      H1898   1.082       .  S
C1899      C1900   1.405       .  A
C1899      C1904   1.381       .  A
C1899      H1905   1.084       .  S
C1900      C1901   1.399       .  A
C1901      C1902   1.395       .  A
C1901      H1906   1.082       .  S
C1902      C1903   1.407       .  A
C1902      H1907   1.084       .  S
C1903      C1904   1.396       .  A
C1904      H1908   1.083       .  S
C1909      C1910   1.404       .  A
C1909      C1914   1.396       .  A
C1909      H1915   1.083       .  S
C1910      C1911   1.409       .  A
C1911      C1912   1.408       .  A
C1911      H1916   1.081       .  S
C1912      C1913   1.406       .  A
C1912      H1917   1.083       .  S
C1913      C1914   1.406       .  A
C1914      H1918   1.083       .  S
C1919      C1920   1.406       .  A
C1919      C1924   1.376       .  A
C1919      H1925   1.075       .  S
C1920      C1921   1.407       .  A
C1921      C1922   1.415       .  A
C1921      H1926   1.083       .  S
C1922      C1923   1.414       .  A
C1922      H1927   1.082       .  S
C1923      C1924   1.393       .  A
C1924      H1928   1.084       .  S
C1929      C1934   1.405       .  A
C1929      H1935   1.083       .  S
C1930      C1931   1.412       .  A
C1931      C1932   1.415       .  A
C1931      H1936   1.083       .  S
C1932      C1933   1.408       .  A
C1932      H1937   1.082       .  S
C1934      H1938   1.084       .  S
C1939      C1940   1.410       .  A
C1939      C1944   1.401       .  A
C1940      C1941   1.402       .  A
C1941      C1942   1.407       .  A
C1941      H1946   1.083       .  S
C1942      C1943   1.411       .  A
C1942      H1947   1.083       .  S
C1943      C1944   1.400       .  A
C1949      C1950   1.404       .  A
C1949      C1954   1.406       .  A
C1949      H1955   1.082       .  S
C1950      C1951   1.411       .  A
C1951      C1952   1.402       .  A
C1951      H1956   1.080       .  S
C1952      C1953   1.399       .  A
C1952      H1957   1.083       .  S
C1953      C1954   1.407       .  A
C1954      H1958   1.083       .  S
C1959      C1960   1.411       .  A
C1959      C1964   1.415       .  A
C1959      H1965   1.079       .  S
C1960      C1961   1.407       .  A
C1961      C1962   1.400       .  A
C1961      H1966   1.083       .  S
C1962      C1963   1.408       .  A
C1962      H1967   1.083       .  S
C1963      C1964   1.409       .  A
C1964      H1968   1.083       .  S
C1969      C1970   1.389       .  A
C1969      C1974   1.387       .  A
C1969      H1975   1.083       .  S
C1970      C1971   1.407       .  A
C1971      C1972   1.390       .  A
C1971      H1976   1.084       .  S
C1972      C1973   1.393       .  A
C1972      H1977   1.083       .  S
C1973      C1974   1.410       .  A
C1974      H1978   1.081       .  S
C1979      C1980   1.398       .  A
C1979      C1984   1.389       .  A
C1979      H1985   1.079       .  S
C1980      C1981   1.404       .  A
C1981      C1982   1.405       .  A
C1981      H1986   1.082       .  S
C1982      C1983   1.404       .  A
C1982      H1987   1.083       .  S
C1983      C1984   1.403       .  A
C1984      H1988   1.085       .  S
C1989      C1990   1.407       .  A
C1989      C1994   1.387       .  A
C1989      H1995   1.083       .  S
C1990      C1991   1.405       .  A
C1991      C1992   1.407       .  A
C1991      H1996   1.083       .  S
C1992      C1993   1.410       .  A
C1992      H1997   1.083       .  S
C1993      C1994   1.400       .  A
C1994      H1998   1.083       .  S
C1999      C2000   1.399       .  A
C1999      C2004   1.399       .  A
C1999      H2005   1.077       .  S
C2000      C2001   1.413       .  A
C2001      C2002   1.402       .  A
C2001      H2006   1.083       .  S
C2002      C2003   1.401       .  A
C2002      H2007   1.083       .  S
C2003      C2004   1.407       .  A
C2004      H2008   1.083       .  S
C2009      C2014   1.398       .  A
C2009      H2015   1.083       .  S
C2010      C2011   1.403       .  A
C2011      C2012   1.387       .  A
C2011      H2016   1.084       .  S
C2012      C2013   1.398       .  A
C2012      H2017   1.083       .  S
C2014      H2018   1.083       .  S
C2019      C2020   1.408       .  A
C2019      C2024   1.404       .  A
C2019      H2025   1.083       .  S
C2021      C2022   1.386       .  A
C2021      H2026   1.084       .  S
C2022      H2027   1.083       .  S
C2023      C2024   1.403       .  A
C2024      H2028   1.083       .  S
C2029      C2030   1.412   1_554  A
C2029      C2034   1.389       .  A
C2029      H2035   1.083       .  S
C2030      C2031   1.392       .  A
C2031      C2032   1.395       .  A
C2031      H2036   1.083       .  S
C2032      C2033   1.414   1_556  A
C2032      H2037   1.083       .  S
C2033      C2034   1.390       .  A
C2034      H2038   1.083       .  S
C2039      C2040   1.389       .  A
C2039      C2044   1.396       .  A
C2039      H2045   1.083       .  S
C2040      C2041   1.419   1_554  A
C2041      C2042   1.403       .  A
C2041      H2046   1.080       .  S
C2042      C2043   1.393       .  A
C2042      H2047   1.082       .  S
C2043      C2044   1.422   1_556  A
C2044      H2048   1.084       .  S
C2049      C2050   1.411       .  A
C2049      C2054   1.419       .  A
C2049      H2055   1.080       .  S
C2050      C2051   1.411       .  A
C2051      C2052   1.402       .  A
C2051      H2056   1.084       .  S
C2052      C2053   1.402       .  A
C2052      H2057   1.084       .  S
C2053      C2054   1.411       .  A
C2054      H2058   1.083       .  S
C2059      C2060   1.403       .  A
C2059      C2064   1.405       .  A
C2059      H2065   1.082       .  S
C2060      C2061   1.409       .  A
C2061      C2062   1.394       .  A
C2061      H2066   1.081       .  S
C2062      C2063   1.399       .  A
C2062      H2067   1.083       .  S
C2063      C2064   1.411       .  A
C2064      H2068   1.083       .  S
C2069      C2070   1.408       .  A
C2069      C2074   1.399       .  A
C2069      H2075   1.082       .  S
C2070      C2071   1.406       .  A
C2071      C2072   1.400       .  A
C2071      H2076   1.082       .  S
C2072      C2073   1.406       .  A
C2072      H2077   1.083       .  S
C2073      C2074   1.405       .  A
C2074      H2078   1.083       .  S
C2079      C2080   1.406       .  A
C2079      C2084   1.399       .  A
C2079      H2085   1.083       .  S
C2080      C2081   1.409       .  A
C2081      C2082   1.402       .  A
C2081      H2086   1.080       .  S
C2082      C2083   1.398       .  A
C2082      H2087   1.081       .  S
C2083      C2084   1.406       .  A
C2084      H2088   1.084       .  S
C2089      C2094   1.400       .  A
C2089      H2095   1.082       .  S
C2090      C2091   1.399   1_565  A
C2091      C2092   1.393       .  A
C2091      H2096   1.083       .  S
C2092      C2093   1.410   1_545  A
C2092      H2097   1.083       .  S
C2094      H2098   1.083       .  S
C2099      C2100   1.405       .  A
C2099      C2104   1.407       .  A
C2099      H2105   1.081       .  S
C2100      C2101   1.403       .  A
C2101      C2102   1.384       .  A
C2101      H2106   1.085       .  S
C2102      C2103   1.402       .  A
C2102      H2107   1.083       .  S
C2103      C2104   1.410       .  A
C2104      H2108   1.083       .  S
C2109      C2114   1.395       .  A
C2109      H2115   1.083       .  S
C2110      C2111   1.397   1_455  A
C2111      C2112   1.392       .  A
C2111      H2116   1.083       .  S
C2112      C2113   1.403       .  A
C2112      H2117   1.079       .  S
C2114      H2118   1.080       .  S
C2119      C2124   1.389       .  A
C2119      H2125   1.082       .  S
C2120      C2121   1.408       .  A
C2121      C2122   1.407       .  A
C2121      H2126   1.083       .  S
C2122      C2123   1.405       .  A
C2122      H2127   1.081       .  S
C2124      H2128   1.083       .  S
C2129      C2130   1.407   1_565  A
C2129      C2134   1.397       .  A
C2129      H2135   1.083   1_455  S
C2131      C2132   1.406       .  A
C2131      H2136   1.082       .  S
C2132      H2137   1.083       .  S
C2133      C2134   1.402   1_545  A
C2134      H2138   1.083   1_455  S
C2139      C2140   1.409       .  A
C2139      C2144   1.407       .  A
C2139      H2145   1.083       .  S
C2141      C2142   1.405       .  A
C2141      H2146   1.083       .  S
C2142      H2147   1.083       .  S
C2143      C2144   1.408       .  A
C2144      H2148   1.083       .  S
C2149      C2150   1.408       .  A
C2149      C2154   1.404       .  A
C2149      H2155   1.083       .  S
C2150      C2151   1.395       .  A
C2151      C2152   1.395       .  A
C2151      H2156   1.083       .  S
C2152      C2153   1.412       .  A
C2152      H2157   1.084       .  S
C2153      C2154   1.399       .  A
C2154      H2158   1.081       .  S
C2159      C2160   1.404       .  A
C2159      C2164   1.413       .  A
C2159      H2165   1.081       .  S
C2160      C2161   1.412       .  A
C2161      C2162   1.406       .  A
C2161      H2166   1.084       .  S
C2162      C2163   1.405       .  A
C2162      H2167   1.083       .  S
C2163      C2164   1.417       .  A
C2164      H2168   1.083       .  S
C2169      C2174   1.412   1_554  A
C2169      H2175   1.080       .  S
C2170      C2171   1.393       .  A
C2171      C2172   1.402       .  A
C2171      H2176   1.082       .  S
C2172      H2177   1.068       .  S
C2173      C2174   1.401       .  A
C2174      H2178   1.082       .  S
C2179      C2180   1.415   1_545  A
C2179      H2185   1.084       .  S
C2180      C2181   1.394       .  A
C2181      H2186   1.081       .  S
C2182      C2183   1.415   1_556  A
C2182      H2187   1.083       .  S
C2183      C2184   1.394   1_554  A
C2184      H2188   1.083   1_556  S
C2189      C2190   1.405       .  A
C2189      C2194   1.413   1_554  A
C2189      H2195   1.082       .  S
C2191      C2192   1.390       .  A
C2191      H2196   1.083       .  S
C2192      C2193   1.398   1_655  A
C2192      H2197   1.083       .  S
C2194      H2198   1.080   1_556  S
C2199      C2200   1.398       .  A
C2199      C2204   1.401       .  A
C2199      H2205   1.082       .  S
C2201      C2202   1.396   1_556  A
C2201      H2206   1.083       .  S
C2202      C2203   1.401       .  A
C2202      H2207   1.083       .  S
C2204      H2208   1.075   1_556  S
