geometry optimzed in LAMMPS
_audit_creation_date              2020-11-30 
_audit_creation_method            'lammps2cif' 
_symmetry_space_group_name_H-M    'P1' 
_symmetry_Int_Tables_number       1 
_symmetry_cell_setting            triclinic 
loop_ 
_symmetry_equiv_pos_as_xyz 
  x,y,z 
_cell_length_a                    30.17112612 
_cell_length_b                    30.17191019185927 
_cell_length_c                    47.92939179287869 
_cell_angle_alpha                 90.07134324198698 
_cell_angle_beta                  90.62920082677961 
_cell_angle_gamma                 119.90502669559343 
loop_ 
_atom_site_label 
_atom_site_type_symbol 
_atom_site_fract_x 
_atom_site_fract_y 
_atom_site_fract_z 
_atom_site_charge 
O1          O  0.44344781  0.08836542  0.27592869    -0.75100
O2          O  0.49202523  0.07942744  0.30963134    -0.54000
C3          C  0.46029669  0.09287415  0.30144075     0.78700
O4          O  0.35649932  0.88213040  0.20604143    -0.59700
O5          O  0.41810682  0.90843453  0.17330428    -0.52700
C6          C  0.37136366  0.88476536  0.18055593     0.70700
O7          O  0.38181693  0.91583050  0.30066845    -0.74200
O8          O  0.44821923  0.98262961  0.32318238    -0.54800
C9          C  0.40338767  0.94323255  0.32276723     0.76700
O10         O  0.44413636  0.05765623  0.17867817    -0.59400
O11         O  0.46577834  0.00393493  0.15737899    -0.52500
C12         C  0.44757155  0.03401498  0.15677701     0.73300
Zr13       Zr  0.46525634  0.06423532  0.22996016     2.54700
O14         O  0.38563059  0.06584550  0.22567763    -0.79900
O15         O  0.50979576  0.15487617  0.21860876    -0.93400
Zr16       Zr  0.40467842  0.91644859  0.25104672     2.64700
O17         O  0.31686956  0.89588369  0.25883679    -0.98300
O18         O  0.37896570  0.82670182  0.25685715    -0.80400
O19         O  0.44444998  0.00145201  0.26218333    -0.83700
O20         O  0.42728311  0.97830742  0.21525752    -2.18400
O21         O  0.62613798  0.08083437  0.18134320    -0.67100
O22         O  0.55908596  0.01291316  0.15967498    -0.51700
C23         C  0.60350417  0.05260372  0.15959725     0.71600
O24         O  0.56513267  0.93543281  0.30447435    -0.60000
O25         O  0.54747804  0.99246812  0.32554526    -0.52000
C26         C  0.56152508  0.95886310  0.32639479     0.73400
O27         O  0.57245187  0.91167979  0.20728587    -0.71400
O28         O  0.50214704  0.89855912  0.18605676    -0.50100
C29         C  0.54639193  0.90409163  0.18449888     0.74800
O30         O  0.64928294  0.09296760  0.27783152    -0.66800
O31         O  0.58952005  0.10109051  0.29892806    -0.54000
C32         C  0.63104626  0.10078027  0.30017803     0.73200
Zr33       Zr  0.60602364  0.08019313  0.23182911     2.77500
O34         O  0.69728022  0.11235255  0.22636433    -0.97500
O35         O  0.63192165  0.17049175  0.22888504    -0.78300
Zr36       Zr  0.54702059  0.93288067  0.25301491     2.70100
O37         O  0.62759582  0.93615274  0.26391743    -0.79600
O38         O  0.50358476  0.84014598  0.25655443    -0.98700
Zr39       Zr  0.51402453  0.02240625  0.28926578     2.21500
Zr40       Zr  0.49535654  0.97296961  0.19408039     2.11100
O41         O  0.57509353  0.99544694  0.21651049    -2.47300
O42         O  0.57394949  0.01603800  0.26414458    -0.79400
O43         O  0.52847019  0.05393647  0.21048280    -0.71600
O44         O  0.47911678  0.93426940  0.27790836    -2.32500
O45         O  0.54179294  0.08968987  0.25577953    -2.28700
O46         O  0.47315092  0.91768217  0.22998594    -0.73300
H47         H  0.39922874  0.97211254  0.20297051     0.78700
H48         H  0.46985623  0.91296070  0.29427008     0.79800
H49         H  0.60131386  0.99670294  0.20465523     0.82000
H50         H  0.55387156  0.12376420  0.26306112     0.79600
H51         H  0.36874729  0.81164466  0.23789891     0.42600
H52         H  0.46835114  0.83010333  0.26212839     0.41600
H53         H  0.65119807  0.95806541  0.24925761     0.41300
H54         H  0.69943803  0.08492967  0.21618024     0.39200
H55         H  0.64898353  0.18141403  0.21063384     0.42300
H56         H  0.53957330  0.16009744  0.20759688     0.37100
H57         H  0.39571507  0.09958071  0.21741474     0.43200
H58         H  0.31014858  0.91542655  0.24446405     0.39700
H59         H  0.70881544  0.14068828  0.21286997     0.44600
H60         H  0.52459813  0.17289338  0.23651520     0.43300
H61         H  0.29580239  0.85970391  0.25288117     0.43400
H62         H  0.50000908  0.82775230  0.23707045     0.43800
O63         O  0.11743471  0.61886835  0.29321068    -0.75100
O64         O  0.06814286  0.55407241  0.32235595    -0.54000
C65         C  0.10415305  0.59928097  0.31791915     0.78700
O66         O  0.94314627  0.58257698  0.18871868    -0.59700
O67         O  0.98499043  0.54933958  0.16559041    -0.52700
C68         C  0.96007789  0.57289531  0.16601690     0.70700
O69         O  0.94101029  0.59255247  0.28675172    -0.74200
O70         O  0.00585194  0.58806444  0.30576285    -0.54800
C71         C  0.96839633  0.59549427  0.30809361     0.76700
O72         O  0.11909103  0.61100217  0.19545633    -0.59400
O73         O  0.06846479  0.54079284  0.16919188    -0.52500
C74         C  0.10328714  0.58776734  0.17169840     0.73300
Zr75       Zr  0.09671428  0.58330505  0.24440247     2.54700
O76         O  0.15493513  0.67522663  0.24350218    -0.79900
O77         O  0.17392552  0.57674492  0.24537314    -0.93400
Zr78       Zr  0.95541365  0.57019984  0.23970396     2.64700
O79         O  0.00131235  0.66329096  0.23932669    -0.98300
O80         O  0.87392904  0.56792151  0.23491315    -0.80400
O81         O  0.02370193  0.57364913  0.26360652    -0.83700
O82         O  0.02761478  0.57772161  0.21688218    -2.18400
O83         O  0.04768553  0.41527738  0.19721271    -0.67100
O84         O  0.99170851  0.42854190  0.17244994    -0.51700
C85         C  0.02537834  0.41576788  0.17387243     0.71600
O86         O  0.88847918  0.38493256  0.29528178    -0.60000
O87         O  0.92403493  0.45686134  0.32133510    -0.52000
C88         C  0.90029894  0.40818990  0.31922937     0.73400
O89         O  0.86889876  0.38198317  0.19809065    -0.71400
O90         O  0.91465535  0.44971186  0.17026887    -0.50100
C91         C  0.88164854  0.40269177  0.17368627     0.74800
O92         O  0.04001142  0.41224531  0.29814634    -0.66800
O93         O  0.01502112  0.45882419  0.32403773    -0.54000
C94         C  0.03099507  0.42713778  0.32186630     0.73200
Zr95       Zr  0.03264092  0.42997064  0.24744671     2.77500
O96         O  0.98871768  0.33692740  0.24846770    -0.97500
O97         O  0.11454600  0.43256418  0.24937763    -0.78300
Zr98       Zr  0.89274726  0.41691263  0.24675795     2.70100
O99         O  0.82928154  0.32629017  0.24811368    -0.79600
O100        O  0.81550717  0.42263328  0.25158239    -0.98700
Zr101      Zr  0.99631507  0.50718981  0.29294968     2.21500
Zr102      Zr  0.99272698  0.49502947  0.19691680     2.11100
O103        O  0.95961169  0.41622034  0.22153717    -2.47300
O104        O  0.96734557  0.43425061  0.26826546    -0.79400
O105        O  0.05948772  0.50432677  0.22341559    -0.71600
O106        O  0.92107203  0.49678140  0.26999605    -2.32500
O107        O  0.06840050  0.50925990  0.27210161    -2.28700
O108        O  0.92729201  0.49072289  0.22129125    -0.73300
H109        H  0.03914381  0.60544188  0.20383165     0.78700
H110        H  0.89572798  0.49548600  0.28263489     0.79800
H111        H  0.94647242  0.38448894  0.21125697     0.82000
H112        H  0.09446015  0.51285235  0.28529168     0.79600
H113        H  0.88339649  0.60413809  0.23236257     0.42600
H114        H  0.79866066  0.41272708  0.23298235     0.41600
H115        H  0.84855380  0.30945651  0.25450086     0.41300
H116        H  0.00672209  0.32872191  0.26318817     0.39200
H117        H  0.10718924  0.40059402  0.25895332     0.42300
H118        H  0.19453040  0.59936133  0.26102564     0.37100
H119        H  0.13444165  0.68933368  0.23516015     0.43200
H120        H  0.03609654  0.67318274  0.24624942     0.39700
H121        H  0.95489278  0.32686421  0.25646826     0.44600
H122        H  0.19259255  0.59488435  0.22842752     0.43300
H123        H  0.00585447  0.67231834  0.21930818     0.43400
H124        H  0.79332071  0.39374746  0.26382841     0.43800
O125        O  0.53079911  0.62931086  0.32097739    -0.75100
O126        O  0.53135617  0.56243284  0.34270019    -0.54000
C127        C  0.53560197  0.60646838  0.34283555     0.78700
O128        O  0.34973153  0.44381634  0.22141035    -0.59700
O129        O  0.41149413  0.48913190  0.18970517    -0.52700
C130        C  0.36542983  0.45877687  0.19652913     0.70700
O131        O  0.36962222  0.45536395  0.31673881    -0.74200
O132        O  0.44193103  0.47700830  0.34223103    -0.54800
C133        C  0.39412520  0.46135077  0.33994547     0.76700
O134        O  0.54266861  0.65225702  0.22364327    -0.59400
O135        O  0.48940110  0.59021215  0.19399751    -0.52500
C136        C  0.52310081  0.63622238  0.19906131     0.73300
Zr137      Zr  0.51546653  0.60942333  0.26968308     2.54700
O138        O  0.44914309  0.63298335  0.27084595    -0.79900
O139        O  0.57394101  0.69991636  0.27869391    -0.93400
Zr140      Zr  0.39241797  0.46900489  0.26703256     2.64700
O141        O  0.34074489  0.51017143  0.27070277    -0.98300
O142        O  0.31668884  0.38479469  0.27091949    -0.80400
O143        O  0.46231729  0.53220136  0.28946765    -0.83700
O144        O  0.44646155  0.54555326  0.24242257    -2.18400
O145        O  0.62993368  0.57210771  0.20509134    -0.67100
O146        O  0.55928116  0.55577360  0.17981726    -0.51700
C147        C  0.60694160  0.57050737  0.18180296     0.71600
O148        O  0.46954265  0.36222800  0.29744025    -0.60000
O149        O  0.49106060  0.42245496  0.33137239    -0.52000
C150        C  0.47539867  0.37668800  0.32337101     0.73400
O151        O  0.46864854  0.38760198  0.20165213    -0.71400
O152        O  0.47445328  0.45549302  0.17803114    -0.50100
C153        C  0.46825924  0.41052195  0.17892750     0.74800
O154        O  0.64799768  0.57483167  0.30189910    -0.66800
O155        O  0.58740335  0.50475591  0.32080288    -0.54000
C156        C  0.62661421  0.54848356  0.32378622     0.73200
Zr157      Zr  0.60676106  0.55054647  0.25479126     2.77500
O158        O  0.65335422  0.50404055  0.25322481    -0.97500
O159        O  0.68713877  0.62988568  0.24874989    -0.78300
Zr160      Zr  0.48182605  0.40824562  0.25213847     2.70100
O161        O  0.54032351  0.37511939  0.24767949    -0.79600
O162        O  0.40763734  0.32347445  0.24515074    -0.98700
Zr163      Zr  0.50753738  0.49871977  0.30889714     2.21500
Zr164      Zr  0.49103591  0.51862999  0.21247388     2.11100
O165        O  0.54184189  0.48274926  0.22721215    -2.47300
O166        O  0.54560618  0.47680203  0.27567198    -0.79400
O167        O  0.55331255  0.57919298  0.23997720    -0.71600
O168        O  0.43781077  0.43034129  0.28526779    -2.32500
O169        O  0.56726102  0.57822474  0.28826366    -2.28700
O170        O  0.43928483  0.44916221  0.23783544    -0.73300
H171        H  0.42720542  0.55839559  0.23249557     0.78700
H172        H  0.41526679  0.40245620  0.29709393     0.79800
H173        H  0.55646785  0.47403933  0.21177601     0.82000
H174        H  0.59136436  0.60431658  0.30082519     0.79600
H175        H  0.29012632  0.39138377  0.27853255     0.42600
H176        H  0.38543827  0.32833550  0.23159752     0.41600
H177        H  0.56747561  0.39435061  0.26182658     0.41300
H178        H  0.63662188  0.47883417  0.23790547     0.39200
H179        H  0.67817298  0.65705504  0.25121475     0.42300
H180        H  0.56359501  0.71819755  0.26532693     0.37100
H181        H  0.45081089  0.64831719  0.25235809     0.43200
H182        H  0.34560969  0.52854413  0.25290329     0.39700
H183        H  0.68719717  0.52904286  0.24575995     0.44600
H184        H  0.60740524  0.70597135  0.27195307     0.43300
H185        H  0.30499122  0.48164815  0.26961572     0.43400
H186        H  0.42063397  0.30399525  0.23475841     0.43800
O187        O  0.79439868  0.43464461  0.99654181    -0.75100
O188        O  0.87890977  0.48860329  0.98968257    -0.54000
C189        C  0.83969953  0.44289630  0.99256535     0.78700
O190        O  0.73732989  0.63375635  0.43797811    -0.59700
O191        O  0.66118920  0.58629824  0.45727373    -0.52700
C192        C  0.68878284  0.61253915  0.43653076     0.70700
O193        O  0.85262941  0.59305142  0.41434716    -0.74200
O194        O  0.90755816  0.57970735  0.44090150    -0.54800
C195        C  0.89362452  0.59084917  0.41768200     0.76700
O196        O  0.64206367  0.42904515  0.49216540    -0.59400
O197        O  0.61133299  0.48328043  0.49842933    -0.52500
C198        C  0.60465761  0.43721805  0.49528466     0.73300
Zr199      Zr  0.74146336  0.47150732  0.00316453     2.54700
O200        O  0.70056574  0.40955567  0.44953825    -0.79900
O201        O  0.72804131  0.43307301  0.04919004    -0.93400
Zr202      Zr  0.77755388  0.58144706  0.43756925     2.64700
O203        O  0.71689733  0.51458567  0.40609029    -0.98300
O204        O  0.79310505  0.62240412  0.39227339    -0.80400
O205        O  0.79804927  0.52254040  0.45862119    -0.83700
O206        O  0.70905757  0.52138119  0.46516395    -2.18400
O207        O  0.74621378  0.59666986  0.07647692    -0.67100
O208        O  0.67457124  0.57354193  0.05027179    -0.51700
C209        C  0.69968855  0.58554605  0.07381655     0.71600
O210        O  0.93919351  0.71768088  0.49569529    -0.60000
O211        O  0.95785332  0.65364441  0.98713146    -0.52000
C212        C  0.97498323  0.70210231  0.98873733     0.73400
O213        O  0.77887728  0.71869121  0.50305321    -0.71400
O214        O  0.69772821  0.65002704  0.50648503    -0.50100
C215        C  0.72928525  0.69865190  0.50621773     0.74800
O216        O  0.90246424  0.63495786  0.04917137    -0.66800
O217        O  0.92998949  0.58556939  0.03154348    -0.54000
C218        C  0.92716959  0.61122252  0.05210173     0.73200
Zr219      Zr  0.81043998  0.58856282  0.05236536     2.77500
O220        O  0.84468703  0.64197182  0.09407139    -0.97500
O221        O  0.80302435  0.52502654  0.08609904    -0.78300
Zr222      Zr  0.84087736  0.68351548  0.49784262     2.70100
O223        O  0.88490488  0.75188523  0.02773614    -0.79600
O224        O  0.86433250  0.74448635  0.45989700    -0.98700
Zr225      Zr  0.87994100  0.57311886  0.98933134     2.21500
Zr226      Zr  0.69505599  0.56929032  0.50042640     2.11100
O227        O  0.78170187  0.63446192  0.02457272    -2.47300
O228        O  0.86944516  0.63378364  0.01727165    -0.79400
O229        O  0.73053489  0.52821373  0.03194574    -0.71600
O230        O  0.85279407  0.63061958  0.46477311    -2.32500
O231        O  0.81982726  0.52750288  0.02569333    -2.28700
O232        O  0.76494855  0.62918752  0.47227491    -0.73300
H233        H  0.67846816  0.50169422  0.45399366     0.78700
H234        H  0.88068943  0.65354923  0.45308212     0.79800
H235        H  0.77602706  0.65696245  0.03646637     0.82000
H236        H  0.83140447  0.50887725  0.03718104     0.79600
H237        H  0.82252879  0.65710842  0.39566353     0.42600
H238        H  0.89494871  0.74594644  0.45161985     0.41600
H239        H  0.90012131  0.73820086  0.04119732     0.41300
H240        H  0.83582221  0.66930408  0.09205364     0.39200
H241        H  0.83860300  0.53682619  0.09226725     0.42300
H242        H  0.72152476  0.39798590  0.04559254     0.37100
H243        H  0.72779109  0.42526203  0.43544696     0.43200
H244        H  0.70631025  0.53240235  0.39254854     0.39700
H245        H  0.82395330  0.62086439  0.10980254     0.44600
H246        H  0.69461213  0.42830987  0.05511482     0.43300
H247        H  0.73802431  0.50432676  0.39516156     0.43400
H248        H  0.83702078  0.72662644  0.44563524     0.43800
O249        O  0.64562329  0.20730978  0.98009534    -0.75100
O250        O  0.61576388  0.12201829  0.98044306    -0.54000
C251        C  0.60825284  0.16111174  0.97932412     0.78700
O252        O  0.88825442  0.27367814  0.42770875    -0.59700
O253        O  0.90536393  0.34441224  0.45038974    -0.52700
C254        C  0.89993498  0.32049114  0.42728041     0.70700
O255        O  0.74338023  0.12351680  0.41399477    -0.74200
O256        O  0.66767362  0.09414136  0.43528949    -0.54800
C257        C  0.69484349  0.10204856  0.41332899     0.76700
O258        O  0.78755655  0.35038559  0.48400780    -0.59400
O259        O  0.87250370  0.38343362  0.49179467    -0.52500
C260        C  0.83289636  0.38889264  0.48744871     0.73300
Zr261      Zr  0.73636115  0.26293957  0.98573154     2.54700
O262        O  0.70801514  0.29249264  0.44175665    -0.79900
O263        O  0.70104420  0.29284964  0.02173418    -0.93400
Zr264      Zr  0.80025074  0.20737896  0.43252708     2.64700
O265        O  0.77172726  0.24545773  0.39692304    -0.98300
O266        O  0.83554359  0.18829360  0.39181112    -0.80400
O267        O  0.72195061  0.19060457  0.45300638    -0.83700
O268        O  0.80650414  0.27689383  0.45891681    -2.18400
O269        O  0.85851443  0.26539181  0.06790771    -0.67100
O270        O  0.88671605  0.33753062  0.04343950    -0.51700
C271        C  0.87599964  0.31322968  0.06685174     0.71600
O272        O  0.78149691  0.05812312  0.49982626    -0.60000
O273        O  0.70712152  0.04668919  0.98435954    -0.52000
C274        C  0.73851430  0.03131907  0.99189101     0.73400
O275        O  0.93991866  0.21630458  0.49804096    -0.71400
O276        O  0.95132651  0.29736193  0.49801905    -0.50100
C277        C  0.96928958  0.26618371  0.49843812     0.74800
O278        O  0.73723324  0.11310377  0.04808030    -0.66800
O279        O  0.66224022  0.08181593  0.02655735    -0.54000
C280        C  0.68864158  0.08808250  0.04896518     0.73200
Zr281      Zr  0.78029515  0.20496101  0.04578763     2.77500
O282        O  0.77891404  0.18605328  0.09530192    -0.97500
O283        O  0.72310205  0.22641241  0.07032397    -0.78300
Zr284      Zr  0.84269732  0.15522636  0.49646924     2.70100
O285        O  0.87800067  0.12980045  0.03242480    -0.79600
O286        O  0.87683687  0.11975720  0.46291655    -0.98700
Zr287      Zr  0.70179024  0.12402444  0.98285542     2.21500
Zr288      Zr  0.87145045  0.29948581  0.49451112     2.11100
O289        O  0.85839270  0.22810810  0.02210310    -2.47300
O290        O  0.77052232  0.13993368  0.01494057    -0.79400
O291        O  0.79974460  0.27898188  0.01973760    -0.71600
O292        O  0.77683753  0.13660164  0.46273126    -2.32500
O293        O  0.71331252  0.19093137  0.01412458    -2.28700
O294        O  0.86378730  0.22758717  0.46758896    -0.73300
H295        H  0.81336003  0.30469650  0.44656138     0.78700
H296        H  0.77277918  0.10637858  0.45342535     0.79800
H297        H  0.88708668  0.23494405  0.03408489     0.82000
H298        H  0.68209159  0.18131515  0.02399579     0.79600
H299        H  0.85130671  0.16872050  0.39929535     0.42600
H300        H  0.89709689  0.14827844  0.45003384     0.41600
H301        H  0.85508351  0.12691098  0.04781116     0.41300
H302        H  0.80735717  0.17898093  0.09811774     0.39200
H303        H  0.74557947  0.26185792  0.07711862     0.42300
H304        H  0.72939622  0.31126495  0.03536572     0.37100
H305        H  0.70249048  0.26839474  0.42631676     0.43200
H306        H  0.79316394  0.24966121  0.38055191     0.39700
H307        H  0.78983178  0.21860154  0.10541207     0.44600
H308        H  0.67613616  0.26158469  0.03159026     0.43300
H309        H  0.73722287  0.21771893  0.39137250     0.43400
H310        H  0.90263604  0.11543183  0.47365258     0.43800
O311        O  0.36147582  0.79239882  0.00648234    -0.75100
O312        O  0.39205187  0.87795544  0.00582949    -0.54000
C313        C  0.39905069  0.83879582  0.00724780     0.78700
O314        O  0.13075572  0.72979349  0.42844140    -0.59700
O315        O  0.10077719  0.65384099  0.44778929    -0.52700
C316        C  0.11202978  0.68185617  0.42590645     0.70700
O317        O  0.31157232  0.83165916  0.43947525    -0.74200
O318        O  0.34363447  0.90855270  0.45755869    -0.54800
C319        C  0.33537958  0.87977490  0.43613886     0.76700
O320        O  0.20701035  0.63863629  0.50199655    -0.59400
O321        O  0.12176591  0.60615337  0.49646899    -0.52500
C322        C  0.16140451  0.60037321  0.49989290     0.73300
Zr323      Zr  0.26956042  0.73450897  0.00337366     2.54700
O324        O  0.30101436  0.69943362  0.46744804    -0.79900
O325        O  0.29456394  0.69990930  0.04248114    -0.93400
Zr326      Zr  0.21973121  0.78377968  0.44042014     2.64700
O327        O  0.23473744  0.73839504  0.40289731    -0.98300
O328        O  0.22010544  0.83509979  0.40106383    -0.80400
O329        O  0.28554765  0.79955253  0.47315419    -0.83700
O330        O  0.19921219  0.71105814  0.46848786    -2.18400
O331        O  0.12022027  0.71933372  0.06400043    -0.67100
O332        O  0.10698743  0.65138073  0.03968740    -0.51700
C333        C  0.11087859  0.67343475  0.06331866     0.71600
O334        O  0.21671133  0.93460091  0.49165084    -0.60000
O335        O  0.30380509  0.95474771  0.00041939    -0.52000
C336        C  0.27197930  0.97058971  0.99493598     0.73400
O337        O  0.05811934  0.77599240  0.49143786    -0.71400
O338        O  0.04497736  0.69419585  0.49360323    -0.50100
C339        C  0.02791256  0.72607376  0.49230840     0.74800
O340        O  0.26081458  0.87740347  0.06490745    -0.66800
O341        O  0.33879472  0.90246130  0.05063208    -0.54000
C342        C  0.30715977  0.89140457  0.07064291     0.73200
Zr343      Zr  0.20483580  0.78831584  0.05484498     2.77500
O344        O  0.17191823  0.80415091  0.09768639    -0.97500
O345        O  0.24395679  0.76005070  0.09003924    -0.78300
Zr346      Zr  0.15614715  0.83719435  0.49225749     2.70100
O347        O  0.12542355  0.87766489  0.02306491    -0.79600
O348        O  0.12736217  0.86074089  0.45005575    -0.98700
Zr349      Zr  0.30734930  0.87618401  0.00250942     2.21500
Zr350      Zr  0.12432136  0.69105551  0.49501993     2.11100
O351        O  0.13999190  0.76996544  0.02060299    -2.47300
O352        O  0.22853170  0.85950078  0.02498928    -0.79400
O353        O  0.19622798  0.71786664  0.02827127    -0.71600
O354        O  0.23329617  0.85475064  0.46847697    -2.32500
O355        O  0.28066957  0.80296705  0.03203997    -2.28700
O356        O  0.14590094  0.76490228  0.46628894    -0.73300
H357        H  0.19424774  0.68250729  0.45706432     0.78700
H358        H  0.24405312  0.88423189  0.45671708     0.79800
H359        H  0.10852955  0.76326823  0.02924117     0.82000
H360        H  0.30673179  0.80876567  0.04565363     0.79600
H361        H  0.22779853  0.86848986  0.40902043     0.42600
H362        H  0.13074242  0.89435219  0.45450871     0.41600
H363        H  0.15127541  0.89366386  0.03822585     0.41300
H364        H  0.19536279  0.80550139  0.11270038     0.39200
H365        H  0.21803076  0.72406329  0.09372364     0.42300
H366        H  0.27917109  0.70644150  0.05898399     0.37100
H367        H  0.29138615  0.70820962  0.44933121     0.43200
H368        H  0.22097326  0.70290863  0.40941927     0.39700
H369        H  0.17855854  0.83966556  0.09620116     0.44600
H370        H  0.33181819  0.72292141  0.04500425     0.43300
H371        H  0.21195007  0.73632430  0.38734053     0.43400
H372        H  0.15449100  0.86847858  0.43631756     0.43800
O373        O  0.58349383  0.84895315  0.43202586    -0.75100
O374        O  0.57797763  0.90709557  0.46005577    -0.54000
C375        C  0.58414326  0.89123352  0.43592217     0.78700
O376        O  0.43599173  0.64520281  0.52505397    -0.59700
O377        O  0.49017999  0.61382490  0.52234414    -0.52700
C378        C  0.44396450  0.60711775  0.52338542     0.70700
O379        O  0.44271761  0.79595716  0.01720956    -0.74200
O380        O  0.49602431  0.87909741  0.00643074    -0.54800
C381        C  0.45028329  0.84034051  0.01073585     0.76700
O382        O  0.61191201  0.73079440  0.45746870    -0.59400
O383        O  0.57077001  0.65552436  0.47751800    -0.52500
C384        C  0.58860889  0.68235790  0.45537372     0.73300
Zr385      Zr  0.56261490  0.77349156  0.45903120     2.54700
O386        O  0.47752067  0.71443116  0.44033568    -0.79900
O387        O  0.56171227  0.75905619  0.40892541    -0.93400
Zr388      Zr  0.48119770  0.74373776  0.02342770     2.64700
O389        O  0.39146784  0.69671749  0.50044320    -0.98300
O390        O  0.44053427  0.72810061  0.06873789    -0.80400
O391        O  0.51488344  0.79757191  0.48770960    -0.83700
O392        O  0.51573297  0.71061419  0.49312456    -2.18400
O393        O  0.71975091  0.77748587  0.50457993    -0.67100
O394        O  0.65469201  0.69898743  0.51827531    -0.51700
C395        C  0.70105506  0.72869438  0.51019048     0.71600
O396        O  0.65052452  0.90561086  0.06775709    -0.60000
O397        O  0.59765949  0.93015135  0.05105312    -0.52000
C398        C  0.62373118  0.92674931  0.07165327     0.73400
O399        O  0.63200211  0.75596989  0.08824418    -0.71400
O400        O  0.57549429  0.68061948  0.06908360    -0.50100
C401        C  0.59913765  0.70901131  0.09054341     0.74800
O402        O  0.72329105  0.93939412  0.50086863    -0.66800
O403        O  0.66195302  0.95798965  0.00065566    -0.54000
C404        C  0.70978487  0.97380804  0.99727400     0.73200
Zr405      Zr  0.68728408  0.84223729  0.50643138     2.77500
O406        O  0.76452620  0.88219557  0.03662437    -0.97500
O407        O  0.73772571  0.86305499  0.46420420    -0.78300
Zr408      Zr  0.60701492  0.81378941  0.06917129     2.70100
O409        O  0.65687979  0.84301356  0.11228666    -0.79600
O410        O  0.54310957  0.79958781  0.10406743    -0.98700
Zr411      Zr  0.58198878  0.88130832  0.00723842     2.21500
Zr412      Zr  0.57461647  0.69866608  0.52172963     2.11100
O413        O  0.64843312  0.78388443  0.03838909    -2.47300
O414        O  0.64716848  0.87227890  0.03247037    -0.79400
O415        O  0.62168455  0.76376619  0.48741622    -0.71600
O416        O  0.54184717  0.82196313  0.04473785    -2.32500
O417        O  0.62444952  0.85155929  0.48016171    -2.28700
O418        O  0.54138063  0.73427967  0.05067664    -0.73300
H419        H  0.49206675  0.67904815  0.48378360     0.78700
H420        H  0.52474206  0.83381525  0.05706396     0.79800
H421        H  0.67441975  0.77892570  0.04736773     0.82000
H422        H  0.64512497  0.87774064  0.46702193     0.79600
H423        H  0.40426483  0.70243373  0.06497110     0.42600
H424        H  0.52756653  0.76292680  0.10875808     0.41600
H425        H  0.69274660  0.85711927  0.10635983     0.41300
H426        H  0.78473548  0.86554779  0.03205823     0.39200
H427        H  0.76963404  0.86374616  0.47006983     0.42300
H428        H  0.59612637  0.78490787  0.40258592     0.37100
H429        H  0.45739275  0.73161848  0.44373502     0.43200
H430        H  0.39496277  0.67638048  0.48529548     0.39700
H431        H  0.78635599  0.91815318  0.03084230     0.44600
H432        H  0.53834637  0.76962203  0.40047271     0.43300
H433        H  0.36733748  0.67116627  0.51370150     0.43400
H434        H  0.56264419  0.81782013  0.12106820     0.43800
O435        O  0.21209754  0.56384100  0.00524272    -0.75100
O436        O  0.12728540  0.50916342  0.99933771    -0.54000
C437        C  0.16639928  0.55520545  0.00126415     0.78700
O438        O  0.27376305  0.38227623  0.45258181    -0.59700
O439        O  0.34916473  0.42943607  0.47272387    -0.52700
C440        C  0.32209895  0.40851724  0.45075418     0.70700
O441        O  0.15087537  0.41324959  0.42533924    -0.74200
O442        O  0.09225488  0.41724649  0.45319321    -0.54800
C443        C  0.10854493  0.41250135  0.42914751     0.76700
O444        O  0.35514311  0.56408692  0.51934399    -0.59400
O445        O  0.38680799  0.50986636  0.51966716    -0.52500
C446        C  0.39311843  0.55605189  0.52091057     0.73300
Zr447      Zr  0.26835670  0.53018364  0.01208175     2.54700
O448        O  0.30278055  0.59136218  0.47765877    -0.79900
O449        O  0.28703722  0.58691805  0.05207234    -0.93400
Zr450      Zr  0.22515478  0.42582918  0.45117623     2.64700
O451        O  0.28214033  0.50447062  0.42670274    -0.98300
O452        O  0.22409853  0.39599183  0.40379147    -0.80400
O453        O  0.20207784  0.47768079  0.47732590    -0.83700
O454        O  0.29001759  0.47855695  0.48406100    -2.18400
O455        O  0.25676642  0.38644645  0.08331682    -0.67100
O456        O  0.33417876  0.43509728  0.06469781    -0.51700
C457        C  0.30465487  0.41423978  0.08571516     0.71600
O458        O  0.05833359  0.27492962  0.50099700    -0.60000
O459        O  0.05033564  0.34786167  0.99774571    -0.52000
C460        C  0.03332017  0.29948634  0.99867111     0.73400
O461        O  0.21945777  0.27504320  0.50115126    -0.71400
O462        O  0.29965740  0.34180744  0.51206668    -0.50100
C463        C  0.26871162  0.29434371  0.50557322     0.74800
O464        O  0.11204320  0.36216277  0.06543402    -0.66800
O465        O  0.08337168  0.40989712  0.04525771    -0.54000
C466        C  0.08406165  0.38258709  0.06589513     0.73200
Zr467      Zr  0.20309683  0.41572394  0.06385730     2.77500
O468        O  0.18576795  0.39572042  0.11332452    -0.97500
O469        O  0.22084285  0.49042327  0.09202992    -0.78300
Zr470      Zr  0.15683275  0.30924144  0.50230253     2.70100
O471        O  0.12827962  0.24867332  0.03824873    -0.79600
O472        O  0.13277621  0.25592551  0.46049308    -0.98700
Zr473      Zr  0.12947811  0.42640685  0.00092339     2.21500
Zr474      Zr  0.30320532  0.42385622  0.51525483     2.11100
O475        O  0.22827880  0.36655187  0.03577003    -2.47300
O476        O  0.14074580  0.36743964  0.02945406    -0.79400
O477        O  0.28082835  0.47642328  0.04307761    -0.71600
O478        O  0.14715543  0.36823965  0.47323602    -2.32500
O479        O  0.19223028  0.47498102  0.03594747    -2.28700
O480        O  0.23556015  0.37110975  0.48221763    -0.73300
H481        H  0.32130612  0.50156352  0.47465541     0.78700
H482        H  0.12030285  0.34740016  0.46004846     0.79800
H483        H  0.23268933  0.34062646  0.04508017     0.82000
H484        H  0.18087514  0.49434780  0.04681593     0.79600
H485        H  0.20477224  0.35822905  0.40507778     0.42600
H486        H  0.09874681  0.25071003  0.45503648     0.41600
H487        H  0.13577195  0.26775762  0.05611608     0.41300
H488        H  0.18788529  0.36440059  0.11634303     0.39200
H489        H  0.18686806  0.48408146  0.09804614     0.42300
H490        H  0.31378233  0.62076950  0.04550960     0.37100
H491        H  0.27510091  0.58388063  0.46394630     0.43200
H492        H  0.28581335  0.49361850  0.40778969     0.39700
H493        H  0.21563893  0.42246843  0.12378253     0.44600
H494        H  0.30506104  0.57637987  0.06556605     0.43300
H495        H  0.26145086  0.52125790  0.42372589     0.43400
H496        H  0.15605672  0.27875577  0.44598506     0.43800
O497        O  0.37272121  0.12561221  0.41294444    -0.75100
O498        O  0.42503190  0.10063028  0.43177541    -0.54000
C499        C  0.40171095  0.10674115  0.41066722     0.78700
O500        O  0.56139525  0.34866042  0.48929000    -0.59700
O501        O  0.50891588  0.37989614  0.49937117    -0.52700
C502        C  0.55414354  0.38645320  0.49459206     0.70700
O503        O  0.56550540  0.20714902  0.97927354    -0.74200
O504        O  0.51070564  0.12169336  0.97861031    -0.54800
C505        C  0.55178424  0.15564966  0.47869479     0.76700
O506        O  0.37491847  0.26884402  0.43651882    -0.59400
O507        O  0.43160074  0.34227504  0.45443251    -0.52500
C508        C  0.40890750  0.31499509  0.43278056     0.73300
Zr509      Zr  0.40355056  0.20801635  0.43380828     2.54700
O510        O  0.47282964  0.25053375  0.40068358    -0.79900
O511        O  0.35496648  0.19861911  0.39096690    -0.93400
Zr512      Zr  0.52428406  0.25665067  0.48487178     2.64700
O513        O  0.58241382  0.29238158  0.44583473    -0.98300
O514        O  0.60812275  0.29538968  0.01125795    -0.80400
O515        O  0.46625642  0.19133833  0.45393152    -0.83700
O516        O  0.46690252  0.27555698  0.46205666    -2.18400
O517        O  0.27655513  0.21496303  0.50080846    -0.67100
O518        O  0.34593150  0.29599360  0.50086131    -0.51700
C519        C  0.29743142  0.26496529  0.50205106     0.71600
O520        O  0.38232166  0.10836949  0.04647416    -0.60000
O521        O  0.42123121  0.07489129  0.02301905    -0.52000
C522        C  0.40207646  0.07966912  0.04594143     0.73400
O523        O  0.43407964  0.26412695  0.07463132    -0.71400
O524        O  0.43585235  0.32831535  0.04883637    -0.50100
C525        C  0.43533783  0.30684902  0.07240799     0.74800
O526        O  0.27645278  0.05391213  0.49708069    -0.66800
O527        O  0.34583653  0.04426544  0.98192577    -0.54000
C528        C  0.30006168  0.02860249  0.99062023     0.73200
Zr529      Zr  0.31010000  0.15161534  0.49660885     2.77500
O530        O  0.26073686  0.12537066  0.03682640    -0.97500
O531        O  0.23836667  0.11905734  0.46380025    -0.78300
Zr532      Zr  0.43485008  0.20026153  0.04545696     2.70100
O533        O  0.40248092  0.17471884  0.09204573    -0.79600
O534        O  0.50768386  0.20491692  0.07064960    -0.98700
Zr535      Zr  0.42102099  0.11742588  0.48194967     2.21500
Zr536      Zr  0.42529288  0.29608617  0.49807599     2.11100
O537        O  0.37799653  0.22466533  0.02551029    -2.47300
O538        O  0.37699941  0.13777934  0.01447994    -0.79400
O539        O  0.36087491  0.22618385  0.46952773    -0.71600
O540        O  0.48499605  0.18916677  0.01157252    -2.32500
O541        O  0.35670447  0.13482338  0.46221571    -2.28700
O542        O  0.48648191  0.27649127  0.02051808    -0.73300
H543        H  0.48815164  0.30560515  0.45017702     0.78700
H544        H  0.50759971  0.17947658  0.02062635     0.79800
H545        H  0.35975685  0.23111527  0.03992017     0.82000
H546        H  0.33015752  0.10502121  0.45267978     0.79600
H547        H  0.59636353  0.28814337  0.03078930     0.42600
H548        H  0.51138746  0.22533577  0.08760078     0.41600
H549        H  0.36575682  0.16404825  0.09019657     0.41300
H550        H  0.28273897  0.12278121  0.05146663     0.39200
H551        H  0.20844022  0.09534227  0.47495409     0.42300
H552        H  0.31971398  0.17109809  0.39489534     0.37100
H553        H  0.45788406  0.23547182  0.38222223     0.43200
H554        H  0.61522883  0.29647818  0.45288185     0.39700
H555        H  0.25626108  0.15419753  0.04301411     0.44600
H556        H  0.36751709  0.18393464  0.37669210     0.43300
H557        H  0.56997199  0.26413417  0.43200805     0.43400
H558        H  0.49516524  0.16979664  0.07758854     0.43800
C559        C  0.43225634  0.33100888  0.15045703    -0.12100
C560        C  0.45978825  0.38409054  0.15165457     0.05000
C561        C  0.47718930  0.41162284  0.12645841    -0.07300
C562        C  0.46565650  0.38607345  0.10073796    -0.08100
C563        C  0.43869278  0.33269042  0.09943943    -0.02600
C564        C  0.42195877  0.30507416  0.12494703     0.04200
N565        N  0.39301846  0.25060060  0.12574773     0.66700
H566        H  0.41795111  0.30920967  0.16945939     0.15600
H567        H  0.48115558  0.40809984  0.08191508     0.15300
N568        N  0.51265743  0.46499210  0.12695652     0.74400
O569        O  0.41165060  0.22728117  0.13885407    -0.39100
O570        O  0.34516314  0.22888719  0.12231230    -0.39000
O571        O  0.55736156  0.48043659  0.13609371    -0.39700
O572        O  0.49835120  0.49656339  0.12067651    -0.39800
C573        C  0.49502510  0.35526503  0.36917239    -0.12100
C574        C  0.45957918  0.34071697  0.34705279     0.05000
C575        C  0.40745855  0.31340112  0.35362334    -0.07300
C576        C  0.39215121  0.30813295  0.38157765    -0.08100
C577        C  0.42791718  0.33016633  0.40371202    -0.02600
C578        C  0.48053914  0.35449997  0.39712088     0.04200
N579        N  0.51979028  0.37956988  0.41804643     0.66700
H580        H  0.53492731  0.37267330  0.36412181     0.15600
H581        H  0.35174081  0.28619254  0.38600454     0.15300
N582        N  0.36961807  0.29013609  0.33205747     0.74400
O583        O  0.55862229  0.37406442  0.41797778    -0.39100
O584        O  0.52081728  0.41486206  0.43270857    -0.39000
O585        O  0.35197402  0.24341529  0.32638040    -0.39700
O586        O  0.34706678  0.31280259  0.32270143    -0.39800
C587        C  0.61251437  0.58942626  0.13026559    -0.12100
C588        C  0.63516139  0.58263530  0.15483883     0.05000
C589        C  0.67967843  0.57901569  0.15200633    -0.07300
C590        C  0.69932895  0.58073049  0.12558856    -0.08100
C591        C  0.67584364  0.58545507  0.10098899    -0.02600
C592        C  0.63179226  0.58966248  0.10354580     0.04200
N593        N  0.60547509  0.59242384  0.07925223     0.66700
H594        H  0.57807409  0.59200333  0.13165620     0.15600
H595        H  0.73264167  0.57611576  0.12450160     0.15300
N596        N  0.70357913  0.56954437  0.17535555     0.74400
O597        O  0.62780001  0.63035702  0.06332938    -0.39100
O598        O  0.56704485  0.55219602  0.07014139    -0.39000
O599        O  0.69267269  0.52421653  0.18048250    -0.39700
O600        O  0.74385176  0.60608325  0.18579938    -0.39800
C601        C  0.62202412  0.56144281  0.40278237    -0.12100
C602        C  0.66538592  0.60798277  0.40854385     0.05000
C603        C  0.69319091  0.63944410  0.38583309    -0.07300
C604        C  0.68073346  0.62019866  0.35819899    -0.08100
C605        C  0.64117495  0.56990217  0.35290460    -0.02600
C606        C  0.61127711  0.54141905  0.37590135     0.04200
N607        N  0.57500229  0.48863460  0.37351650     0.66700
H608        H  0.60031992  0.53643922  0.41970772     0.15600
H609        H  0.70229152  0.64436744  0.34102162     0.15300
N610        N  0.73325142  0.69102049  0.39052090     0.74400
O611        O  0.59199952  0.45806456  0.37427872    -0.39100
O612        O  0.52932093  0.47327437  0.38028382    -0.39000
O613        O  0.77630769  0.70690629  0.37949070    -0.39700
O614        O  0.72258285  0.72299310  0.40086249    -0.39800
C615        C  0.52887672  0.66669385  0.12361240    -0.12100
C616        C  0.58151344  0.69096617  0.11908231     0.05000
C617        C  0.61523659  0.70688565  0.14247091    -0.07300
C618        C  0.59562232  0.69450986  0.16955733    -0.08100
C619        C  0.54277829  0.66794431  0.17386840    -0.02600
C620        C  0.50940901  0.65664506  0.15061473     0.04200
N621        N  0.45521164  0.63252804  0.15419138     0.66700
H622        H  0.50264693  0.65743975  0.10606644     0.15600
H623        H  0.62172531  0.70235032  0.18700464     0.15300
N624        N  0.66941542  0.73324889  0.13909943     0.74400
O625        O  0.42542244  0.59481896  0.13904165    -0.39100
O626        O  0.43703306  0.64884602  0.17252368    -0.39000
O627        O  0.69483143  0.78041478  0.14470264    -0.39700
O628        O  0.69221717  0.70780731  0.13820425    -0.39800
C629        C  0.52251038  0.59613284  0.39340730    -0.12100
C630        C  0.54694514  0.62943552  0.37095601     0.05000
C631        C  0.58822267  0.67841133  0.37661884    -0.07300
C632        C  0.60409833  0.69295049  0.40434004    -0.08100
C633        C  0.57788821  0.66044283  0.42684323    -0.02600
C634        C  0.53706103  0.61126864  0.42103871     0.04200
N635        N  0.50916511  0.57663415  0.44286979     0.66700
H636        H  0.49224435  0.55727088  0.38940379     0.15600
H637        H  0.63618517  0.73087698  0.40829846     0.15300
N638        N  0.61530528  0.71313769  0.35463369     0.74400
O639        O  0.47060458  0.57653027  0.45287718    -0.39100
O640        O  0.52686860  0.55119961  0.45457423    -0.39000
O641        O  0.60993493  0.75158798  0.35083431    -0.39700
O642        O  0.65155157  0.71113835  0.34296692    -0.39800
C643        C  0.32582718  0.39397444  0.16070775    -0.12100
C644        C  0.33113065  0.43860550  0.17271169     0.05000
C645        C  0.32527513  0.47349670  0.15601537    -0.07300
C646        C  0.32351419  0.46814422  0.12697945    -0.08100
C647        C  0.32258499  0.42543195  0.11459111    -0.02600
C648        C  0.31874267  0.38601403  0.13193923     0.04200
N649        N  0.30382549  0.33656790  0.12086485     0.66700
H650        H  0.32924529  0.36623591  0.17355047     0.15600
H651        H  0.31902205  0.49529462  0.11417770     0.15300
N652        N  0.31701169  0.51171835  0.16865651     0.74400
O653        O  0.33730211  0.32412618  0.11673135    -0.39100
O654        O  0.25736914  0.30221669  0.12148022    -0.39000
O655        O  0.35267053  0.54811920  0.18220224    -0.39700
O656        O  0.27164076  0.50193401  0.17223342    -0.39800
C657        C  0.34039872  0.39650011  0.37395986    -0.12100
C658        C  0.36665874  0.44801274  0.36638881     0.01700
C659        C  0.37793825  0.48617281  0.38671331    -0.07300
C660        C  0.36880098  0.47210334  0.41486975    -0.08100
C661        C  0.34351932  0.42056759  0.42264558    -0.02600
C662        C  0.32716148  0.38206894  0.40177671     0.04200
N663        N  0.29714045  0.32854537  0.40835625     0.66700
H664        H  0.33168732  0.36742652  0.35825651     0.15600
H665        H  0.37708211  0.50111265  0.43060585     0.15300
N666        N  0.39486037  0.53823958  0.37877772     0.74400
O667        O  0.26658261  0.29721529  0.39040834    -0.39100
O668        O  0.30287467  0.31180116  0.43143790    -0.39000
O669        O  0.38333019  0.54763064  0.35496195    -0.39700
O670        O  0.41295291  0.57354299  0.39689803    -0.39800
C671        C  0.94470067  0.63973621  0.10189041    -0.12100
C672        C  0.94430078  0.60728357  0.08047776     0.05000
C673        C  0.95023377  0.56553875  0.08768146    -0.07300
C674        C  0.95222281  0.55476138  0.11559503    -0.08100
C675        C  0.95102811  0.58584985  0.13738364    -0.02600
C676        C  0.94764133  0.62919964  0.13021046     0.04200
N677        N  0.94741578  0.66293511  0.15102779     0.66700
H678        H  0.94134823  0.67285276  0.09665652     0.15600
H679        H  0.95470721  0.52100505  0.12015553     0.15300
N680        N  0.95245642  0.53240911  0.06703648     0.74400
O681        O  0.98778645  0.70486408  0.15570844    -0.39100
O682        O  0.90517927  0.65764692  0.15868636    -0.39000
O683        O  0.99327441  0.54631179  0.05388554    -0.39700
O684        O  0.91285958  0.49075927  0.06070035    -0.39800
C685        C  0.91529150  0.62900845  0.37078683    -0.12100
C686        C  0.92442736  0.60198160  0.39206785     0.05000
C687        C  0.95557235  0.58058283  0.38615135    -0.07300
C688        C  0.96974557  0.58017101  0.35850015    -0.08100
C689        C  0.95570347  0.60243675  0.33677436    -0.02600
C690        C  0.93019717  0.62908475  0.34335580     0.04200
N691        N  0.91985346  0.65709714  0.32279811     0.66700
H692        H  0.89430538  0.64865540  0.37515201     0.15600
H693        H  0.99151891  0.56141372  0.35392442     0.15300
N694        N  0.97317902  0.55923648  0.40739106     0.74400
O695        O  0.87678521  0.63617071  0.31062359    -0.39100
O696        O  0.94723059  0.70518184  0.32248733    -0.39000
O697        O  0.97983667  0.52220628  0.40143498    -0.39700
O698        O  0.99402271  0.58477227  0.42929387    -0.39800
C699        C  0.88512754  0.33658558  0.14511360    -0.12100
C700        C  0.86647422  0.37070133  0.14784504     0.05000
C701        C  0.85065099  0.38547255  0.12334581    -0.07300
C702        C  0.85729060  0.36935896  0.09687696    -0.08100
C703        C  0.87926875  0.33814802  0.09414723    -0.02600
C704        C  0.89200397  0.32059896  0.11874160     0.04200
N705        N  0.91297279  0.28719957  0.11718066     0.66700
H706        H  0.89877633  0.32579487  0.16346046     0.15600
H707        H  0.84378300  0.38007538  0.07844937     0.15300
N708        N  0.82689844  0.41610886  0.12501904     0.74400
O709        O  0.94754184  0.29571027  0.09991023    -0.39100
O710        O  0.89322165  0.24624590  0.13092090    -0.39000
O711        O  0.84910136  0.46035716  0.11480221    -0.39700
O712        O  0.77945820  0.39444808  0.12928095    -0.39800
C713        C  0.88544157  0.40159017  0.37037861    -0.12100
C714        C  0.89215525  0.37993263  0.34593092     0.05000
C715        C  0.90053683  0.33804475  0.34860828    -0.07300
C716        C  0.90563280  0.32144485  0.37523763    -0.08100
C717        C  0.90013051  0.34394092  0.39976557    -0.02600
C718        C  0.88783251  0.38330450  0.39693034     0.04200
N719        N  0.87298030  0.40211680  0.42030433     0.66700
H720        H  0.87805384  0.43319125  0.36888251     0.15600
H721        H  0.91307677  0.28990390  0.37665288     0.15300
N722        N  0.90411944  0.31182478  0.32465378     0.74400
O723        O  0.90628211  0.44102407  0.43340401    -0.39100
O724        O  0.82644097  0.38903609  0.42278061    -0.39000
O725        O  0.94684223  0.31689498  0.31829372    -0.39700
O726        O  0.86392472  0.27404691  0.31501176    -0.39800
C727        C  0.05238187  0.36680244  0.14291847    -0.12100
C728        C  0.03795649  0.40383300  0.14612599     0.05000
C729        C  0.03052525  0.42664954  0.12163877    -0.07300
C730        C  0.04243887  0.41602856  0.09565358    -0.08100
C731        C  0.05930113  0.38124670  0.09247341    -0.02600
C732        C  0.06073993  0.35349249  0.11616438     0.04200
N733        N  0.06461951  0.30833652  0.11318222     0.66700
H734        H  0.05406405  0.34603336  0.16094776     0.15600
H735        H  0.03908526  0.43623794  0.07779159     0.15300
N736        N  0.00942011  0.45984429  0.12212006     0.74400
O737        O  0.09745965  0.30377808  0.12745678    -0.39100
O738        O  0.02658379  0.26843814  0.10347004    -0.39000
O739        O  0.03702111  0.50562902  0.11499122    -0.39700
O740        O  0.96191194  0.44016896  0.11879816    -0.39800
C741        C  0.02678458  0.42764070  0.37382614    -0.12100
C742        C  0.04062675  0.41044543  0.34958719     0.05000
C743        C  0.06831716  0.38468061  0.35325361    -0.07300
C744        C  0.08627096  0.38205902  0.37996694    -0.08100
C745        C  0.07819904  0.40564049  0.40333678    -0.02600
C746        C  0.04638073  0.42688753  0.40022407     0.04200
N747        N  0.03919295  0.45397921  0.42259696     0.66700
H748        H  0.00405732  0.44623685  0.37224411     0.15600
H749        H  0.10918911  0.36372127  0.38210775     0.15300
N750        N  0.08051948  0.36284342  0.33022426     0.74400
O751        O  0.06894535  0.50151003  0.42526359    -0.39100
O752        O  0.99829210  0.43278430  0.43618123    -0.39000
O753        O  0.12500283  0.38625439  0.32038597    -0.39700
O754        O  0.05231751  0.31582503  0.32491460    -0.39800
C755        C  0.12814111  0.59560271  0.12148730    -0.12100
C756        C  0.11931685  0.61720840  0.14531654     0.05000
C757        C  0.11099954  0.65878729  0.14169394    -0.07300
C758        C  0.10511827  0.67346380  0.11489524    -0.08100
C759        C  0.11030049  0.64975909  0.09079468    -0.02600
C760        C  0.12359547  0.61126308  0.09438369     0.04200
N761        N  0.13308902  0.58790857  0.07101640     0.66700
H762        H  0.13552361  0.56412419  0.12386745     0.15600
H763        H  0.09702971  0.70453597  0.11308834     0.15300
N764        N  0.10751038  0.68627256  0.16504642     0.74400
O765        O  0.17860734  0.60056697  0.06533171    -0.39100
O766        O  0.09701893  0.54695675  0.06089837    -0.39000
O767        O  0.14749797  0.72539902  0.17378534    -0.39700
O768        O  0.06454708  0.68042989  0.17151206    -0.39800
C769        C  0.11021937  0.66897918  0.34680011    -0.12100
C770        C  0.12294533  0.63060332  0.34355430     0.05000
C771        C  0.13329637  0.61022845  0.36768758    -0.07300
C772        C  0.12576946  0.62451798  0.39430506    -0.08100
C773        C  0.11064524  0.66124913  0.39757119    -0.02600
C774        C  0.10442821  0.68469317  0.37337977     0.04200
N775        N  0.09043108  0.72336103  0.37532068     0.66700
H776        H  0.10066115  0.68404063  0.32861307     0.15600
H777        H  0.13416753  0.60858245  0.41251300     0.15300
N778        N  0.15266252  0.57577789  0.36538201     0.74400
O779        O  0.12380750  0.76934954  0.37113299    -0.39100
O780        O  0.04377386  0.71063040  0.37431403    -0.39000
O781        O  0.20016868  0.59299948  0.36788970    -0.39700
O782        O  0.12258477  0.52837218  0.36744902    -0.39800
C783        C  0.35070557  0.84646058  0.13405860    -0.12100
C784        C  0.33551521  0.86579635  0.15628131     0.05000
C785        C  0.30487921  0.88766151  0.15000292    -0.07300
C786        C  0.29705952  0.89674047  0.12202910    -0.08100
C787        C  0.32024046  0.88524986  0.09991945    -0.02600
C788        C  0.34679919  0.85881382  0.10631353     0.04200
N789        N  0.37086087  0.84461957  0.08531075     0.66700
H790        H  0.37181508  0.82712994  0.13869298     0.15600
H791        H  0.27345735  0.91370641  0.11760838     0.15300
N792        N  0.28168048  0.90098231  0.17177049     0.74400
O793        O  0.41114991  0.87882873  0.07425227    -0.39100
O794        O  0.36093100  0.79880792  0.08376116    -0.39000
O795        O  0.30020780  0.94718910  0.17885191    -0.39700
O796        O  0.23732048  0.86855773  0.17951382    -0.39800
C797        C  0.39459955  0.96495970  0.37207471    -0.12100
C798        C  0.37752585  0.92816492  0.35035697     0.05000
C799        C  0.34356940  0.87680910  0.35713886    -0.07300
C800        C  0.33093577  0.86311902  0.38500714    -0.08100
C801        C  0.35009110  0.89926107  0.40702279    -0.02600
C802        C  0.38175150  0.95119899  0.40015708     0.04200
N803        N  0.40277348  0.99025617  0.42122173     0.66700
H804        H  0.42030022  0.00482695  0.36738784     0.15600
H805        H  0.30639926  0.82307056  0.38931458     0.15300
N806        N  0.32391246  0.83725111  0.33641565     0.74400
O807        O  0.44981367  0.02307402  0.42114757    -0.39100
O808        O  0.37327546  0.99737754  0.43666242    -0.39000
O809        O  0.34377894  0.80925804  0.33395941    -0.39700
O810        O  0.27991052  0.82217527  0.32620146    -0.39800
C811        C  0.62102062  0.92712756  0.15172838    -0.12100
C812        C  0.56889568  0.91080129  0.15573670     0.05000
C813        C  0.53953602  0.90803784  0.13171169    -0.07300
C814        C  0.56102442  0.92031318  0.10540301    -0.08100
C815        C  0.61127695  0.93278549  0.10094642    -0.02600
C816        C  0.64273331  0.93812070  0.12461544     0.04200
N817        N  0.69649575  0.95579453  0.12166704     0.66700
H818        H  0.64505300  0.93211453  0.16975700     0.15600
H819        H  0.53600653  0.91538874  0.08781211     0.15300
N820        N  0.48618895  0.88982317  0.13283201     0.74400
O821        O  0.72118012  0.98482863  0.10182089    -0.39100
O822        O  0.72076164  0.94730885  0.14056920    -0.39000
O823        O  0.47039305  0.92019192  0.12651795    -0.39700
O824        O  0.45633127  0.84237508  0.13008508    -0.39800
C825        C  0.55094801  0.93301043  0.40488556    -0.12100
C826        C  0.58847414  0.92009081  0.40996748     0.05000
C827        C  0.62029867  0.92308240  0.38750243    -0.07300
C828        C  0.61161799  0.93571564  0.36038353    -0.08100
C829        C  0.57182079  0.94592119  0.35508438    -0.02600
C830        C  0.54196248  0.94488537  0.37799494     0.04200
N831        N  0.49774847  0.94932327  0.37393736     0.66700
H832        H  0.52503175  0.92929610  0.42139810     0.15600
H833        H  0.63615695  0.93770138  0.34352555     0.15300
N834        N  0.66250934  0.91484281  0.39200240     0.74400
O835        O  0.45490380  0.90880367  0.37376580    -0.39100
O836        O  0.50035641  0.99121426  0.38003276    -0.39000
O837        O  0.66152699  0.87626364  0.38111714    -0.39700
O838        O  0.70488771  0.95207214  0.39979588    -0.39800
C839        C  0.59646751  0.05808987  0.10850782    -0.12100
C840        C  0.62787116  0.06484443  0.13189567     0.05000
C841        C  0.67833415  0.07569079  0.12758171    -0.07300
C842        C  0.69568361  0.07805226  0.10028640    -0.08100
C843        C  0.66477928  0.07315132  0.07687665    -0.02600
C844        C  0.61451292  0.06263096  0.08136059     0.04200
N845        N  0.58228649  0.05952464  0.05862212     0.66700
H846        H  0.55755953  0.04982153  0.11138128     0.15600
H847        H  0.73450564  0.08592692  0.09747697     0.15300
N848        N  0.71279945  0.08548605  0.15046178     0.74400
O849        O  0.56008256  0.01897033  0.04421451    -0.39100
O850        O  0.58616411  0.10028312  0.04909811    -0.39000
O851        O  0.72282036  0.05132556  0.15791296    -0.39700
O852        O  0.74234203  0.13115078  0.15805749    -0.39800
C853        C  0.62723764  0.11340405  0.35062961    -0.12100
C854        C  0.65099023  0.10209825  0.32874184     0.05000
C855        C  0.68554838  0.08514881  0.33556524    -0.07300
C856        C  0.69553448  0.08022097  0.36368419    -0.08100
C857        C  0.67183861  0.09216516  0.38530467    -0.02600
C858        C  0.63679408  0.10830300  0.37846997     0.04200
N859        N  0.61338089  0.12351438  0.39935337     0.66700
H860        H  0.60014663  0.12600722  0.34626424     0.15600
H861        H  0.72358168  0.06888568  0.36870257     0.15300
N862        N  0.71119091  0.07330897  0.31451183     0.74400
O863        O  0.63492027  0.16978679  0.40692304    -0.39100
O864        O  0.56655625  0.09483997  0.40437297    -0.39000
O865        O  0.75750772  0.10476687  0.30967793    -0.39700
O866        O  0.69221283  0.02770938  0.30610695    -0.39800
C867        C  0.44498099  0.02315386  0.10470501    -0.12100
C868        C  0.43011835  0.04039210  0.12843995     0.05000
C869        C  0.39837481  0.06152340  0.12415864    -0.07300
C870        C  0.38448237  0.06705276  0.09693320    -0.08100
C871        C  0.40577787  0.05721326  0.07317808    -0.02600
C872        C  0.43462085  0.03255119  0.07733852     0.04200
N873        N  0.45456285  0.01747808  0.05446654     0.66700
H874        H  0.46743142  0.00448909  0.10720285     0.15600
H875        H  0.35836006  0.08150193  0.09450788     0.15300
N876        N  0.38165358  0.07969594  0.14700858     0.74400
O877        O  0.48565138  0.05065315  0.03799294    -0.39100
O878        O  0.45009118  0.97366184  0.05427655    -0.39000
O879        O  0.40789388  0.12573209  0.15482287    -0.39700
O880        O  0.34293198  0.04910784  0.16069060    -0.39800
C881        C  0.39008090  0.07463475  0.33355879    -0.12100
C882        C  0.44005500  0.10898394  0.32484411     0.05000
C883        C  0.47546285  0.14340144  0.34477691    -0.07300
C884        C  0.46334631  0.13792575  0.37305435    -0.08100
C885        C  0.41478079  0.10141341  0.38196674    -0.02600
C886        C  0.37687360  0.07186690  0.36183760     0.04200
N887        N  0.32523344  0.03841675  0.36997940     0.66700
H888        H  0.36238667  0.04736628  0.31881834     0.15600
H889        H  0.49135557  0.16428620  0.38802751     0.15300
N890        N  0.52428426  0.18405043  0.33656188     0.74400
O891        O  0.31385867  0.99779043  0.38289708    -0.39100
O892        O  0.29313257  0.05354913  0.36842364    -0.39000
O893        O  0.52821277  0.22634045  0.33000040    -0.39700
O894        O  0.56401449  0.18304635  0.34390514    -0.39800
O895        O  0.42766024  0.08212368  0.77410749    -0.75100
O896        O  0.47143110  0.06825750  0.80870592    -0.54000
C897        C  0.44329058  0.08554458  0.79971792     0.78700
O898        O  0.34207029  0.87104186  0.70630848    -0.59700
O899        O  0.40586725  0.88640761  0.67685120    -0.52700
C900        C  0.35872602  0.86955132  0.68175975     0.70700
O901        O  0.36782631  0.90004973  0.80164824    -0.74200
O902        O  0.43230661  0.97046664  0.82300040    -0.54800
C903        C  0.38937902  0.92884362  0.82326426     0.76700
O904        O  0.42718045  0.04566970  0.67857400    -0.59400
O905        O  0.44373918  0.98736339  0.65829315    -0.52500
C906        C  0.42804365  0.01952403  0.65725719     0.73300
Zr907      Zr  0.44608814  0.05156392  0.72964687     2.54700
O908        O  0.36158888  0.04271856  0.72521969    -0.79900
O909        O  0.48424851  0.14148144  0.71733840    -0.93400
Zr910      Zr  0.38931232  0.90452309  0.75166032     2.64700
O911        O  0.30182749  0.88399765  0.76051298    -0.98300
O912        O  0.36529223  0.81486035  0.75516023    -0.80400
O913        O  0.42644516  0.98975615  0.76236361    -0.83700
O914        O  0.41037120  0.96548593  0.71540728    -2.18400
O915        O  0.60755317  0.07116535  0.68121211    -0.67100
O916        O  0.54175124  0.00218392  0.65941520    -0.51700
C917        C  0.58571855  0.04257587  0.65942086     0.71600
O918        O  0.55544459  0.93452722  0.80541174    -0.60000
O919        O  0.53312122  0.98836051  0.82599801    -0.52000
C920        C  0.55101993  0.95797514  0.82708777     0.73400
O921        O  0.56105331  0.90504488  0.70924035    -0.71400
O922        O  0.49002480  0.88882434  0.68766225    -0.50100
C923        C  0.53479673  0.89566093  0.68639912     0.74800
O924        O  0.63095695  0.08760064  0.77823463    -0.66800
O925        O  0.57047551  0.09118825  0.80231619    -0.54000
C926        C  0.61403518  0.09487030  0.80135099     0.73200
Zr927      Zr  0.58804931  0.07183377  0.73176084     2.77500
O928        O  0.67959886  0.10556716  0.72685175    -0.97500
O929        O  0.61167303  0.16129080  0.72705472    -0.78300
Zr930      Zr  0.53368761  0.92609649  0.75426248     2.70100
O931        O  0.61312639  0.92729201  0.76544046    -0.79600
O932        O  0.48778189  0.83354004  0.75894530    -0.98700
Zr933      Zr  0.49687763  0.01334750  0.78915161     2.21500
Zr934      Zr  0.47927006  0.96129108  0.69446157     2.11100
O935        O  0.55969163  0.98722872  0.71709145    -2.47300
O936        O  0.55814157  0.00888435  0.76452540    -0.79400
O937        O  0.51009706  0.04240142  0.71041932    -0.71600
O938        O  0.46458513  0.92535805  0.77874294    -2.32500
O939        O  0.52312545  0.07977092  0.75559953    -2.28700
O940        O  0.45927898  0.90833482  0.73118736    -0.73300
H941        H  0.38237713  0.95867741  0.70292563     0.78700
H942        H  0.45648244  0.90458763  0.79527846     0.79800
H943        H  0.58630360  0.98915427  0.70531728     0.82000
H944        H  0.53504982  0.11345550  0.76340363     0.79600
H945        H  0.34763787  0.80391533  0.77325529     0.42600
H946        H  0.50116195  0.82118732  0.74386306     0.41600
H947        H  0.64020303  0.96149455  0.75943615     0.41300
H948        H  0.68248896  0.07841476  0.71683768     0.39200
H949        H  0.64133664  0.17984022  0.73989169     0.42300
H950        H  0.51870530  0.15847087  0.72609902     0.37100
H951        H  0.34065887  0.01646783  0.73910264     0.43200
H952        H  0.29485061  0.90392545  0.74650687     0.39700
H953        H  0.69068391  0.13369756  0.71325902     0.44600
H954        H  0.46489885  0.15395536  0.72822951     0.43300
H955        H  0.28056425  0.84798023  0.75431965     0.43400
H956        H  0.50182158  0.82735562  0.77633504     0.43800
O957        O  0.11823128  0.61756494  0.79258987    -0.75100
O958        O  0.06891620  0.55355135  0.82214660    -0.54000
C959        C  0.10494022  0.59867647  0.81738780     0.78700
O960        O  0.95319402  0.58727004  0.68764280    -0.59700
O961        O  0.98111948  0.54123036  0.66382022    -0.52700
C962        C  0.96529098  0.57304367  0.66459527     0.70700
O963        O  0.94182081  0.59058497  0.78622733    -0.74200
O964        O  0.00747717  0.58702767  0.80433387    -0.54800
C965        C  0.96952913  0.59330037  0.80741247     0.76700
O966        O  0.12103831  0.60956318  0.69591600    -0.59400
O967        O  0.06967963  0.54040108  0.66903506    -0.52500
C968        C  0.10494326  0.58714377  0.67204899     0.73300
Zr969      Zr  0.09755580  0.58066927  0.74430765     2.54700
O970        O  0.15471504  0.67271176  0.74259197    -0.79900
O971        O  0.17556410  0.57550747  0.74604049    -0.93400
Zr972      Zr  0.95662595  0.56833555  0.73892830     2.64700
O973        O  0.99561679  0.66095121  0.74113970    -0.98300
O974        O  0.87161142  0.55637368  0.73057491    -0.80400
O975        O  0.02451342  0.57144280  0.76312475    -0.83700
O976        O  0.02875707  0.57476083  0.71641454    -2.18400
O977        O  0.05045524  0.41278371  0.69807035    -0.67100
O978        O  0.99327206  0.42402840  0.67337258    -0.51700
C979        C  0.02790966  0.41253472  0.67470263     0.71600
O980        O  0.88685384  0.38400899  0.79532505    -0.60000
O981        O  0.92427915  0.45619665  0.82132542    -0.52000
C982        C  0.89878369  0.40751005  0.81922233     0.73400
O983        O  0.87039921  0.38018790  0.69777976    -0.71400
O984        O  0.91487540  0.44958314  0.67114174    -0.50100
C985        C  0.88304806  0.40218405  0.67370223     0.74800
O986        O  0.04016298  0.41037621  0.79879215    -0.66800
O987        O  0.01482239  0.45714978  0.82424566    -0.54000
C988        C  0.03100400  0.42561992  0.82237061     0.73200
Zr989      Zr  0.03308819  0.42734225  0.74790366     2.77500
O990        O  0.98921245  0.33432642  0.74943370    -0.97500
O991        O  0.11437251  0.42884015  0.75114821    -0.78300
Zr992      Zr  0.89336627  0.41529510  0.74646240     2.70100
O993        O  0.82697289  0.32575621  0.74837756    -0.79600
O994        O  0.81814400  0.42507860  0.74910129    -0.98700
Zr995      Zr  0.99690444  0.50536686  0.79280526     2.21500
Zr996      Zr  0.99406977  0.49200047  0.69658812     2.11100
O997        O  0.96014331  0.41336549  0.72163378    -2.47300
O998        O  0.96763856  0.43210335  0.76831032    -0.79400
O999        O  0.06058060  0.50153099  0.72345313    -0.71600
O1000       O  0.92200988  0.49529316  0.76954476    -2.32500
O1001       O  0.06894761  0.50689291  0.77230232    -2.28700
O1002       O  0.92930020  0.48884945  0.72096713    -0.73300
H1003       H  0.04039210  0.60210559  0.70312432     0.78700
H1004       H  0.89657823  0.49414861  0.78206002     0.79800
H1005       H  0.94672784  0.38129771  0.71165587     0.82000
H1006       H  0.09486360  0.51058887  0.78562518     0.79600
H1007       H  0.85516105  0.52710175  0.71738537     0.42600
H1008       H  0.80221727  0.41524855  0.73027932     0.41600
H1009       H  0.84562309  0.30722186  0.75254460     0.41300
H1010       H  0.95632296  0.32448733  0.75857034     0.39200
H1011       H  0.10518930  0.39263102  0.74878703     0.42300
H1012       H  0.19406770  0.59302510  0.72893010     0.37100
H1013       H  0.13244105  0.68652661  0.73668866     0.43200
H1014       H  0.02609046  0.67378980  0.72919179     0.39700
H1015       H  0.97972837  0.32315741  0.72977514     0.44600
H1016       H  0.16414584  0.53897559  0.74261756     0.43300
H1017       H  0.97172972  0.66828972  0.73048699     0.43400
H1018       H  0.79442417  0.39699398  0.76134358     0.43800
O1019       O  0.55664570  0.62234996  0.82198499    -0.75100
O1020       O  0.53340935  0.54716934  0.84359017    -0.54000
C1021       C  0.55297413  0.59558261  0.84380490     0.78700
O1022       O  0.35435635  0.46659656  0.71946689    -0.59700
O1023       O  0.41893351  0.52332116  0.69344385    -0.52700
C1024       C  0.37281035  0.48848358  0.69589109     0.70700
O1025       O  0.36936118  0.47138475  0.81729123    -0.74200
O1026       O  0.43240807  0.46584812  0.84105622    -0.54800
C1027       C  0.38951383  0.46451648  0.83967654     0.76700
O1028       O  0.56190399  0.65383031  0.72781581    -0.59400
O1029       O  0.52065516  0.59595096  0.69295748    -0.52500
C1030       C  0.54915043  0.64123475  0.70208979     0.73300
Zr1031     Zr  0.53607284  0.60540992  0.77155083     2.54700
O1032       O  0.49061676  0.65170753  0.78027694    -0.79900
O1033       O  0.61715284  0.68425354  0.77863460    -0.93400
Zr1034     Zr  0.39284156  0.48735658  0.76728474     2.64700
O1035       O  0.37026294  0.55418187  0.77054084    -0.98300
O1036       O  0.30174829  0.42689831  0.77119128    -0.80400
O1037       O  0.46926265  0.53484974  0.79037070    -0.83700
O1038       O  0.46059096  0.55782502  0.74399190    -2.18400
O1039       O  0.61517152  0.53126624  0.70336955    -0.67100
O1040       O  0.55119415  0.53417570  0.67949987    -0.51700
C1041       C  0.59484539  0.53731721  0.68074012     0.71600
O1042       O  0.41735954  0.34641369  0.79636763    -0.60000
O1043       O  0.48996624  0.40277321  0.81530881    -0.52000
C1044       C  0.44527823  0.36598218  0.81838427     0.73400
O1045       O  0.43145692  0.37576424  0.69929836    -0.71400
O1046       O  0.45174906  0.44987694  0.67721782    -0.50100
C1047       C  0.43656319  0.40211959  0.67700830     0.74800
O1048       O  0.63026719  0.51860603  0.80047399    -0.66800
O1049       O  0.56561346  0.48165043  0.83156673    -0.54000
C1050       C  0.61281485  0.50468116  0.82552021     0.73200
Zr1051     Zr  0.59013659  0.51073972  0.75316703     2.77500
O1052       O  0.60912203  0.44166039  0.74799617    -0.97500
O1053       O  0.68075736  0.57208809  0.74821828    -0.78300
Zr1054     Zr  0.44467586  0.39120577  0.75033571     2.70100
O1055       O  0.48351319  0.33726710  0.74882944    -0.79600
O1056       O  0.36090445  0.31875414  0.73873300    -0.98700
Zr1057     Zr  0.49757956  0.48413783  0.80833344     2.21500
Zr1058     Zr  0.48664735  0.51428626  0.71267545     2.11100
O1059       O  0.51598280  0.45702372  0.72565089    -2.47300
O1060       O  0.51841679  0.44777980  0.77362348    -0.79400
O1061       O  0.55581903  0.56045583  0.74048564    -0.71600
O1062       O  0.41800800  0.42994146  0.78506521    -2.32500
O1063       O  0.56952440  0.55408196  0.78765230    -2.28700
O1064       O  0.42273012  0.45048643  0.73692139    -0.73300
H1065       H  0.45001175  0.57977792  0.73502755     0.78700
H1066       H  0.39087349  0.40595063  0.79680437     0.79800
H1067       H  0.52509441  0.44354322  0.70980269     0.82000
H1068       H  0.59761712  0.57454069  0.80025617     0.79600
H1069       H  0.28552199  0.44841493  0.77204454     0.42600
H1070       H  0.36788012  0.29124495  0.73311627     0.41600
H1071       H  0.45887207  0.30545109  0.75837035     0.41300
H1072       H  0.62212244  0.44537777  0.72876565     0.39200
H1073       H  0.69640637  0.55099399  0.74351372     0.42300
H1074       H  0.61022113  0.71194112  0.77330132     0.37100
H1075       H  0.48783442  0.65188854  0.80083661     0.43200
H1076       H  0.34250185  0.54431080  0.75651876     0.39700
H1077       H  0.63951327  0.45179427  0.76011807     0.44600
H1078       H  0.63979898  0.68402580  0.76390725     0.43300
H1079       H  0.35313966  0.54844689  0.78875698     0.43400
H1080       H  0.34331363  0.30734790  0.75681567     0.43800
O1081       O  0.78608121  0.43012761  0.48683156    -0.75100
O1082       O  0.87156566  0.48536342  0.48717256    -0.54000
C1083       C  0.83226071  0.43904617  0.48703203     0.78700
O1084       O  0.73419222  0.61257841  0.93673161    -0.59700
O1085       O  0.65977953  0.56412009  0.95599380    -0.52700
C1086       C  0.68637705  0.58409276  0.93402098     0.70700
O1087       O  0.85428960  0.58126694  0.91555544    -0.74200
O1088       O  0.91460106  0.57770620  0.94246364    -0.54800
C1089       C  0.89744743  0.58358287  0.91878424     0.76700
O1090       O  0.64945722  0.43271809  0.00256433    -0.59400
O1091       O  0.61829749  0.48736832  0.00254568    -0.52500
C1092       C  0.61173576  0.44119188  0.00200185     0.73300
Zr1093     Zr  0.73290470  0.46793562  0.48934310     2.54700
O1094       O  0.69676228  0.38581771  0.98302970    -0.79900
O1095       O  0.70115012  0.39976700  0.52367877    -0.93400
Zr1096     Zr  0.77979139  0.56688238  0.94006658     2.64700
O1097       O  0.72360015  0.48549815  0.91674498    -0.98300
O1098       O  0.77804510  0.58397482  0.89058905    -0.80400
O1099       O  0.80139850  0.51481321  0.96701071    -0.83700
O1100       O  0.71561568  0.51579405  0.97247414    -2.18400
O1101       O  0.72567003  0.56499959  0.57451530    -0.67100
O1102       O  0.66051300  0.55935232  0.54763881    -0.51700
C1103       C  0.68117776  0.55927149  0.57137963     0.71600
O1104       O  0.94485727  0.72206824  0.99047082    -0.60000
O1105       O  0.95130670  0.64953310  0.48767036    -0.52000
C1106       C  0.96887781  0.69765772  0.49163962     0.73400
O1107       O  0.78371735  0.72115781  0.99708712    -0.71400
O1108       O  0.70267530  0.65276035  0.00196256    -0.50100
C1109       C  0.73416572  0.70139222  0.00077000     0.74800
O1110       O  0.88621064  0.62346501  0.55257518    -0.66800
O1111       O  0.91850456  0.58039407  0.53170962    -0.54000
C1112       C  0.91589048  0.60485460  0.55311698     0.73200
Zr1113     Zr  0.79503348  0.56815494  0.54990077     2.77500
O1114       O  0.81868375  0.59758091  0.59806602    -0.97500
O1115       O  0.78861298  0.49565563  0.57572603    -0.78300
Zr1116     Zr  0.84634072  0.68621278  0.99162821     2.70100
O1117       O  0.87686591  0.74309344  0.53693204    -0.79600
O1118       O  0.86660957  0.74071376  0.95088448    -0.98700
Zr1119     Zr  0.87204167  0.57020076  0.48746500     2.21500
Zr1120     Zr  0.70214013  0.57224000  0.00182800     2.11100
O1121       O  0.77215504  0.62403108  0.52743899    -2.47300
O1122       O  0.85850485  0.62351168  0.51928181    -0.79400
O1123       O  0.71935824  0.51534341  0.52404387    -0.71600
O1124       O  0.85694107  0.62666070  0.96269361    -2.32500
O1125       O  0.80619982  0.51457921  0.51816258    -2.28700
O1126       O  0.76863785  0.62431946  0.96923383    -0.73300
H1127       H  0.68469282  0.49253645  0.96242252     0.78700
H1128       H  0.88332051  0.64759565  0.94969569     0.79800
H1129       H  0.76549320  0.64316068  0.54131188     0.82000
H1130       H  0.81586354  0.49266464  0.52792473     0.79600
H1131       H  0.80626509  0.61949710  0.88822771     0.42600
H1132       H  0.87884294  0.77535761  0.95869825     0.41600
H1133       H  0.87022082  0.72098710  0.55341692     0.41300
H1134       H  0.81286675  0.62695724  0.60003904     0.39200
H1135       H  0.75142206  0.47279562  0.57820000     0.42300
H1136       H  0.68203445  0.40851166  0.53717896     0.37100
H1137       H  0.69093205  0.39086853  0.96321403     0.43200
H1138       H  0.74092329  0.48664235  0.89911975     0.39700
H1139       H  0.79258471  0.57048584  0.60992565     0.44600
H1140       H  0.73187586  0.40524083  0.53425039     0.43300
H1141       H  0.72657018  0.45962101  0.92801261     0.43400
H1142       H  0.89758368  0.74212881  0.94315266     0.43800
O1143       O  0.64029562  0.20231223  0.47676186    -0.75100
O1144       O  0.61073894  0.11736232  0.48103234    -0.54000
C1145       C  0.60301435  0.15608482  0.47824076     0.78700
O1146       O  0.89109363  0.27945973  0.92929018    -0.59700
O1147       O  0.90826177  0.35035373  0.95119381    -0.52700
C1148       C  0.90197927  0.32589083  0.92823179     0.70700
O1149       O  0.74543604  0.13313990  0.91102265    -0.74200
O1150       O  0.67129928  0.10065836  0.93454431    -0.54800
C1151       C  0.69680460  0.10991434  0.91179739     0.76700
O1152       O  0.79381797  0.35465060  0.98820046    -0.59400
O1153       O  0.87917416  0.38708898  0.99397849    -0.52500
C1154       C  0.83953887  0.39278059  0.99112651     0.73300
Zr1155     Zr  0.73134585  0.25847225  0.48180253     2.54700
O1156       O  0.70925472  0.30108672  0.94944497    -0.79900
O1157       O  0.69033249  0.28941243  0.51335370    -0.93400
Zr1158     Zr  0.80268528  0.21453264  0.93216475     2.64700
O1159       O  0.77579323  0.25614972  0.89785841    -0.98300
O1160       O  0.83655962  0.19934893  0.88961135    -0.80400
O1161       O  0.72583871  0.19724389  0.95457513    -0.83700
O1162       O  0.80982155  0.28223537  0.96073195    -2.18400
O1163       O  0.85004553  0.26410915  0.56879330    -0.67100
O1164       O  0.88484607  0.33547845  0.54270719    -0.51700
C1165       C  0.87296162  0.31240356  0.56652921     0.71600
O1166       O  0.78757479  0.06215967  0.99641812    -0.60000
O1167       O  0.70130500  0.04242082  0.48698247    -0.52000
C1168       C  0.73250688  0.02717853  0.49500885     0.73400
O1169       O  0.94538737  0.22053356  0.99584793    -0.71400
O1170       O  0.95638196  0.30135950  0.99814567    -0.50100
C1171       C  0.97448288  0.27035789  0.99759966     0.74800
O1172       O  0.72893911  0.11388201  0.55119202    -0.66800
O1173       O  0.65554368  0.08071908  0.52757543    -0.54000
C1174       C  0.68028681  0.08774630  0.55071630     0.73200
Zr1175     Zr  0.77274465  0.20527360  0.54536510     2.77500
O1176       O  0.76564403  0.18988694  0.59549365    -0.97500
O1177       O  0.71598641  0.23189262  0.56586069    -0.78300
Zr1178     Zr  0.84836604  0.15907949  0.99289474     2.70100
O1179       O  0.86880486  0.13059227  0.53923443    -0.79600
O1180       O  0.88020738  0.12815500  0.95555367    -0.98700
Zr1181     Zr  0.69677529  0.11983775  0.48355160     2.21500
Zr1182     Zr  0.87647790  0.30295495  0.99502114     2.11100
O1183       O  0.85180655  0.22634932  0.52337121    -2.47300
O1184       O  0.76395176  0.13754846  0.51702529    -0.79400
O1185       O  0.79339561  0.27741565  0.51733138    -0.71600
O1186       O  0.78073592  0.14181844  0.96032866    -2.32500
O1187       O  0.70732174  0.18904834  0.51229776    -2.28700
O1188       O  0.86808964  0.23307946  0.96585402    -0.73300
H1189       H  0.81616613  0.31074364  0.94909532     0.78700
H1190       H  0.77593527  0.11240721  0.94980322     0.79800
H1191       H  0.88021213  0.23397398  0.53576934     0.82000
H1192       H  0.67578296  0.18029665  0.52157770     0.79600
H1193       H  0.85665158  0.18342206  0.89604928     0.42600
H1194       H  0.89557726  0.15683475  0.94221167     0.41600
H1195       H  0.83750132  0.11427735  0.55062295     0.41300
H1196       H  0.79277429  0.18169626  0.60021947     0.39200
H1197       H  0.68646136  0.19991191  0.57267313     0.42300
H1198       H  0.68574370  0.31402900  0.50180691     0.37100
H1199       H  0.68623683  0.27231090  0.93702270     0.43200
H1200       H  0.75558390  0.22906199  0.88389401     0.39700
H1201       H  0.77690910  0.22345132  0.60452487     0.44600
H1202       H  0.71729522  0.31087050  0.52715192     0.43300
H1203       H  0.75025215  0.26184252  0.90754578     0.43400
H1204       H  0.90976034  0.12709564  0.96399571     0.43800
O1205       O  0.35570481  0.78767078  0.50591373    -0.75100
O1206       O  0.38632783  0.87316919  0.50506840    -0.54000
C1207       C  0.39322799  0.83400649  0.50670388     0.78700
O1208       O  0.13923355  0.73616260  0.92604713    -0.59700
O1209       O  0.10814251  0.66061992  0.94652977    -0.52700
C1210       C  0.11916285  0.68792740  0.92432762     0.70700
O1211       O  0.31850615  0.83497118  0.94572477    -0.74200
O1212       O  0.35219960  0.91432591  0.95899633    -0.54800
C1213       C  0.34261332  0.88189694  0.93936792     0.76700
O1214       O  0.21163306  0.64349082  0.00221901    -0.59400
O1215       O  0.12669976  0.61110928  0.99541557    -0.52500
C1216       C  0.16612604  0.60527621  0.99938016     0.73300
Zr1217     Zr  0.26408417  0.72979463  0.50228466     2.54700
O1218       O  0.30698888  0.70215029  0.97003044    -0.79900
O1219       O  0.29105357  0.69338069  0.53963850    -0.93400
Zr1220     Zr  0.22713610  0.78869727  0.94054361     2.64700
O1221       O  0.24275601  0.74472593  0.90246267    -0.98300
O1222       O  0.23357148  0.84613490  0.90309140    -0.80400
O1223       O  0.29125457  0.80411969  0.97434413    -0.83700
O1224       O  0.20581080  0.71593903  0.96868940    -2.18400
O1225       O  0.11608396  0.71552635  0.56473011    -0.67100
O1226       O  0.10505193  0.64808132  0.54085334    -0.51700
C1227       C  0.10819177  0.67022567  0.56431557     0.71600
O1228       O  0.22263816  0.93982104  0.99128172    -0.60000
O1229       O  0.29786089  0.94921826  0.50059776    -0.52000
C1230       C  0.26609457  0.96518058  0.49522115     0.73400
O1231       O  0.06418243  0.78098260  0.98905399    -0.71400
O1232       O  0.05121340  0.69934572  0.99142879    -0.50100
C1233       C  0.03404607  0.73102330  0.98966988     0.74800
O1234       O  0.25696272  0.87270931  0.56442811    -0.66800
O1235       O  0.33413229  0.89547643  0.55013904    -0.54000
C1236       C  0.30282503  0.88524557  0.57023598     0.73200
Zr1237     Zr  0.20027098  0.78392688  0.55496879     2.77500
O1238       O  0.17327553  0.80852672  0.59719519    -0.97500
O1239       O  0.23615440  0.75397138  0.59108583    -0.78300
Zr1240     Zr  0.16226873  0.84223743  0.99124911     2.70100
O1241       O  0.12271609  0.87296446  0.52603978    -0.79600
O1242       O  0.13747757  0.86564088  0.94758473    -0.98700
Zr1243     Zr  0.30151452  0.87073784  0.50188041     2.21500
Zr1244     Zr  0.13013097  0.69615164  0.99423707     2.11100
O1245       O  0.13432643  0.76495489  0.52145806    -2.47300
O1246       O  0.22361106  0.85469866  0.52503728    -0.79400
O1247       O  0.19179531  0.71358547  0.52821414    -0.71600
O1248       O  0.24003202  0.85992541  0.96822626    -2.32500
O1249       O  0.27518485  0.79767193  0.53136735    -2.28700
O1250       O  0.15247199  0.76992562  0.96548764    -0.73300
H1251       H  0.20119487  0.68751995  0.95725677     0.78700
H1252       H  0.25097118  0.88916794  0.95622751     0.79800
H1253       H  0.10318195  0.75852232  0.53037624     0.82000
H1254       H  0.30155906  0.80314245  0.54483600     0.79600
H1255       H  0.22796546  0.82632068  0.88565620     0.42600
H1256       H  0.14834477  0.90230051  0.94984375     0.41600
H1257       H  0.10903369  0.89079797  0.51455041     0.41300
H1258       H  0.13706363  0.79859690  0.59375611     0.39200
H1259       H  0.22090282  0.71690468  0.58738445     0.42300
H1260       H  0.27688333  0.69958063  0.55676191     0.37100
H1261       H  0.31656297  0.72584900  0.95406504     0.43200
H1262       H  0.23106631  0.70972085  0.90927416     0.39700
H1263       H  0.17223154  0.78485552  0.61178938     0.44600
H1264       H  0.32846976  0.71596073  0.54167283     0.43300
H1265       H  0.21819619  0.74060461  0.88745196     0.43400
H1266       H  0.16108661  0.86504408  0.93360233     0.43800
O1267       O  0.58433921  0.85329469  0.93073369    -0.75100
O1268       O  0.58197579  0.91243800  0.95936309    -0.54000
C1269       C  0.58585956  0.89598612  0.93498379     0.78700
O1270       O  0.44143398  0.65099934  0.02395342    -0.59700
O1271       O  0.49533583  0.61940015  0.01991226    -0.52700
C1272       C  0.44922080  0.61288422  0.02168989     0.70700
O1273       O  0.43681200  0.79102256  0.51660934    -0.74200
O1274       O  0.48992570  0.87472310  0.50695196    -0.54800
C1275       C  0.44425786  0.83554306  0.51049297     0.76700
O1276       O  0.61651812  0.73465873  0.95367304    -0.59400
O1277       O  0.57691488  0.66042353  0.97557231    -0.52500
C1278       C  0.59584269  0.68605197  0.95322277     0.73300
Zr1279     Zr  0.56735085  0.77777584  0.95697658     2.54700
O1280       O  0.48328417  0.71824674  0.93735065    -0.79900
O1281       O  0.56977183  0.76492390  0.90693942    -0.93400
Zr1282     Zr  0.47415117  0.73797657  0.52442300     2.64700
O1283       O  0.39857373  0.70570920  0.99964512    -0.98300
O1284       O  0.42946946  0.72216360  0.56848844    -0.80400
O1285       O  0.52085048  0.80243828  0.98633777    -0.83700
O1286       O  0.52100337  0.71555266  0.99133353    -2.18400
O1287       O  0.72498275  0.78073762  0.99963503    -0.67100
O1288       O  0.66022577  0.70273108  0.01408891    -0.51700
C1289       C  0.70619394  0.73187663  0.00516104     0.71600
O1290       O  0.64136992  0.90081930  0.56978632    -0.60000
O1291       O  0.58789989  0.92423378  0.55287942    -0.52000
C1292       C  0.61366127  0.92090907  0.57366583     0.73400
O1293       O  0.62753474  0.75487890  0.58999271    -0.71400
O1294       O  0.57236139  0.67751536  0.57219545    -0.50100
C1295       C  0.59713737  0.70761854  0.59297347     0.74800
O1296       O  0.72948775  0.94352981  0.99768105    -0.66800
O1297       O  0.65562941  0.95377927  0.50337188    -0.54000
C1298       C  0.70359308  0.96966290  0.50036305     0.73200
Zr1299     Zr  0.69351189  0.84628423  0.00320632     2.77500
O1300       O  0.75604203  0.87782310  0.54122154    -0.97500
O1301       O  0.74171506  0.86656511  0.96016570    -0.78300
Zr1302     Zr  0.59862112  0.80910756  0.57113505     2.70100
O1303       O  0.64755008  0.83842677  0.61457948    -0.79600
O1304       O  0.53560000  0.79528866  0.60655155    -0.98700
Zr1305     Zr  0.57537610  0.87669866  0.50875085     2.21500
Zr1306     Zr  0.58062712  0.70364624  0.01915373     2.11100
O1307       O  0.64113158  0.77948693  0.54094448    -2.47300
O1308       O  0.63993739  0.86815956  0.53489627    -0.79400
O1309       O  0.62692120  0.76817657  0.98468257    -0.71600
O1310       O  0.53387914  0.81648930  0.54589334    -2.32500
O1311       O  0.62996326  0.85591593  0.97769131    -2.28700
O1312       O  0.53376533  0.72889903  0.55262931    -0.73300
H1313       H  0.49681562  0.68407194  0.98210808     0.78700
H1314       H  0.51613203  0.82791091  0.55801100     0.79800
H1315       H  0.66766988  0.77510622  0.54965903     0.82000
H1316       H  0.64971477  0.88181697  0.96420084     0.79600
H1317       H  0.40047344  0.68673412  0.56680934     0.42600
H1318       H  0.50761283  0.75981923  0.60337949     0.41600
H1319       H  0.68367550  0.85391132  0.60885406     0.41300
H1320       H  0.77149638  0.91535091  0.53965750     0.39200
H1321       H  0.77374767  0.89887073  0.96434946     0.42300
H1322       H  0.60460629  0.79116115  0.90147488     0.37100
H1323       H  0.46742280  0.73955593  0.93356137     0.43200
H1324       H  0.40167411  0.68632885  0.98383555     0.39700
H1325       H  0.73832602  0.86953870  0.55934877     0.44600
H1326       H  0.54701750  0.77579505  0.89800881     0.43300
H1327       H  0.37428551  0.67941949  0.01250865     0.43400
H1328       H  0.55122738  0.79395871  0.62456603     0.43800
O1329       O  0.20748759  0.55894929  0.50647365    -0.75100
O1330       O  0.12298883  0.50421683  0.49949301    -0.54000
C1331       C  0.16185842  0.55029592  0.50203171     0.78700
O1332       O  0.27615394  0.38610429  0.95474830    -0.59700
O1333       O  0.35314908  0.43274279  0.97260293    -0.52700
C1334       C  0.32414251  0.41150064  0.95132160     0.70700
O1335       O  0.15363739  0.41711079  0.92573396    -0.74200
O1336       O  0.09509315  0.42104136  0.95366519    -0.54800
C1337       C  0.11112566  0.41592871  0.92963928     0.76700
O1338       O  0.36023270  0.57007138  0.01795097    -0.59400
O1339       O  0.39178904  0.51574376  0.01859861    -0.52500
C1340       C  0.39820477  0.56196965  0.01946692     0.73300
Zr1341     Zr  0.26365850  0.52470349  0.51257220     2.54700
O1342       O  0.30685632  0.60077757  0.97940902    -0.79900
O1343       O  0.28551476  0.58701888  0.55013076    -0.93400
Zr1344     Zr  0.22873207  0.43047571  0.95107604     2.64700
O1345       O  0.28639088  0.50716239  0.92530998    -0.98300
O1346       O  0.22581860  0.39962263  0.90375766    -0.80400
O1347       O  0.20610079  0.48256194  0.97717545    -0.83700
O1348       O  0.29433740  0.48377375  0.98354781    -2.18400
O1349       O  0.25316977  0.38055292  0.58434754    -0.67100
O1350       O  0.32955030  0.42881907  0.56456706    -0.51700
C1351       C  0.30120843  0.40925048  0.58615383     0.71600
O1352       O  0.06342540  0.27948928  0.00058214    -0.60000
O1353       O  0.04555484  0.34345251  0.49769756    -0.52000
C1354       C  0.02829436  0.29507540  0.49906292     0.73400
O1355       O  0.22472096  0.28061286  0.00211189    -0.71400
O1356       O  0.30481895  0.34769547  0.01282985    -0.50100
C1357       C  0.27399701  0.30003952  0.00668757     0.74800
O1358       O  0.10728204  0.35623928  0.56305334    -0.66800
O1359       O  0.07865819  0.40500685  0.54475533    -0.54000
C1360       C  0.08028491  0.37755123  0.56498769     0.73200
Zr1361     Zr  0.19841771  0.40884181  0.56408622     2.77500
O1362       O  0.17716325  0.38417377  0.61264720    -0.97500
O1363       O  0.21299432  0.48002172  0.59433911    -0.78300
Zr1364     Zr  0.16173921  0.31470096  0.00273499     2.70100
O1365       O  0.12203616  0.24130744  0.53671757    -0.79600
O1366       O  0.13626718  0.26031033  0.96131365    -0.98700
Zr1367     Zr  0.12530510  0.42144531  0.50078946     2.21500
Zr1368     Zr  0.30816864  0.42973810  0.01509848     2.11100
O1369       O  0.22340079  0.36002462  0.53581331    -2.47300
O1370       O  0.13654479  0.36206465  0.52912217    -0.79400
O1371       O  0.27586186  0.47040310  0.54344450    -0.71600
O1372       O  0.15133733  0.37310164  0.97354478    -2.32500
O1373       O  0.18777620  0.46883940  0.53645895    -2.28700
O1374       O  0.23990973  0.37647939  0.98235463    -0.73300
H1375       H  0.32545704  0.50651869  0.97392835     0.78700
H1376       H  0.12438061  0.35187131  0.96049971     0.79800
H1377       H  0.22796820  0.33446838  0.54543482     0.82000
H1378       H  0.17643825  0.48786833  0.54764606     0.79600
H1379       H  0.20164158  0.36237228  0.90466024     0.42600
H1380       H  0.16836089  0.26315163  0.95435824     0.41600
H1381       H  0.11535067  0.21027919  0.52618348     0.41300
H1382       H  0.17214202  0.34922157  0.61364062     0.39200
H1383       H  0.25041180  0.49891220  0.59779302     0.42300
H1384       H  0.31065728  0.58350961  0.56198688     0.37100
H1385       H  0.33152812  0.59505743  0.96877258     0.43200
H1386       H  0.27523127  0.49919239  0.90555345     0.39700
H1387       H  0.20890509  0.40544905  0.62361697     0.44600
H1388       H  0.25443204  0.57313504  0.56163786     0.43300
H1389       H  0.27639746  0.53257228  0.93079710     0.43400
H1390       H  0.11666735  0.22508094  0.96860411     0.43800
O1391       O  0.37626882  0.13655935  0.91208655    -0.75100
O1392       O  0.42402833  0.10465179  0.92979706    -0.54000
C1393       C  0.40071311  0.11285365  0.90934123     0.78700
O1394       O  0.56831603  0.35360002  0.99324246    -0.59700
O1395       O  0.51533364  0.38497571  0.00173375    -0.52700
C1396       C  0.56096338  0.39111922  0.99890067     0.70700
O1397       O  0.56013692  0.20173701  0.47912341    -0.74200
O1398       O  0.50547734  0.11628220  0.47994063    -0.54800
C1399       C  0.55712522  0.16099862  0.97857646     0.76700
O1400       O  0.36862347  0.26763010  0.93805630    -0.59400
O1401       O  0.42379538  0.34285320  0.95581921    -0.52500
C1402       C  0.39632554  0.31560408  0.93493568     0.73300
Zr1403     Zr  0.41055637  0.21801383  0.93432099     2.54700
O1404       O  0.48026655  0.27107280  0.90312626    -0.79900
O1405       O  0.37884130  0.21465624  0.88685611    -0.93400
Zr1406     Zr  0.52998498  0.26289846  0.98359945     2.64700
O1407       O  0.57912716  0.29663196  0.94118356    -0.98300
O1408       O  0.59336642  0.28593914  0.51911464    -0.80400
O1409       O  0.47194178  0.19794134  0.95275990    -0.83700
O1410       O  0.47402142  0.28617585  0.96212082    -2.18400
O1411       O  0.28211676  0.22083572  0.00076647    -0.67100
O1412       O  0.35161021  0.30153365  0.00443054    -0.51700
C1413       C  0.30296288  0.27064106  0.00379719     0.71600
O1414       O  0.37595259  0.10550653  0.54826072    -0.60000
O1415       O  0.41266044  0.06933487  0.52473348    -0.52000
C1416       C  0.39331290  0.07462876  0.54743166     0.73400
O1417       O  0.42071122  0.25941288  0.57404067    -0.71400
O1418       O  0.42439978  0.32308095  0.54691282    -0.50100
C1419       C  0.42045921  0.30143469  0.57088294     0.74800
O1420       O  0.28227980  0.05940962  0.99689793    -0.66800
O1421       O  0.34027157  0.03876972  0.48264332    -0.54000
C1422       C  0.29432525  0.02313406  0.49102271     0.73200
Zr1423     Zr  0.31543685  0.15711135  0.99620975     2.77500
O1424       O  0.26151871  0.12383646  0.53953990    -0.97500
O1425       O  0.24858165  0.12560735  0.96034426    -0.78300
Zr1426     Zr  0.42990918  0.19757037  0.54641536     2.70100
O1427       O  0.40871702  0.17178798  0.59445852    -0.79600
O1428       O  0.50729423  0.20944449  0.56982200    -0.98700
Zr1429     Zr  0.42642582  0.12311012  0.98044462     2.21500
Zr1430     Zr  0.43075299  0.30170990  0.99932600     2.11100
O1431       O  0.37259701  0.22033090  0.52512901    -2.47300
O1432       O  0.37249348  0.13418412  0.51551513    -0.79400
O1433       O  0.36673579  0.23307759  0.97044865    -0.71600
O1434       O  0.47917317  0.18365239  0.51302274    -2.32500
O1435       O  0.36320197  0.14264836  0.96156530    -2.28700
O1436       O  0.48142936  0.27319925  0.52096380    -0.73300
H1437       H  0.49323571  0.31663467  0.95116065     0.78700
H1438       H  0.50176130  0.17390890  0.52206377     0.79800
H1439       H  0.35321184  0.22679335  0.53880186     0.82000
H1440       H  0.33643672  0.11290710  0.95209816     0.79600
H1441       H  0.57818203  0.28844949  0.53682968     0.42600
H1442       H  0.51071573  0.22959239  0.58684518     0.41600
H1443       H  0.37180164  0.16047316  0.59526393     0.41300
H1444       H  0.23494237  0.08784676  0.53595285     0.39200
H1445       H  0.23839442  0.15205676  0.95896494     0.42300
H1446       H  0.34249749  0.18730608  0.88666940     0.37100
H1447       H  0.49729966  0.25091226  0.89941247     0.43200
H1448       H  0.58639120  0.33241161  0.94014687     0.39700
H1449       H  0.28520885  0.12170238  0.55322151     0.44600
H1450       H  0.39644624  0.20195442  0.87464269     0.43300
H1451       H  0.61266097  0.29963924  0.94556069     0.43400
H1452       H  0.49821013  0.17505199  0.57674333     0.43800
C1453       C  0.40420506  0.32358184  0.64777760    -0.12100
C1454       C  0.42640661  0.37661339  0.64907025     0.05000
C1455       C  0.44143233  0.40426391  0.62364583    -0.07300
C1456       C  0.43631172  0.37887447  0.59821937    -0.08100
C1457       C  0.41656902  0.32594060  0.59719911    -0.02600
C1458       C  0.39857236  0.29811225  0.62248012     0.04200
N1459       N  0.37439950  0.24372098  0.62338071     0.66700
H1460       H  0.39121500  0.30121871  0.66667400     0.15600
H1461       H  0.45075363  0.40130763  0.57943474     0.15300
N1462       N  0.46775021  0.45870556  0.62346142     0.74400
O1463       O  0.39656393  0.22413666  0.63675007    -0.39100
O1464       O  0.32649022  0.21800480  0.62010131    -0.39000
O1465       O  0.51583408  0.48303136  0.62321747    -0.39700
O1466       O  0.44336862  0.48254199  0.62252089    -0.39800
C1467       C  0.45696133  0.38957872  0.86900837    -0.12100
C1468       C  0.42646143  0.35424375  0.84788629     0.05000
C1469       C  0.37956897  0.31222676  0.85596354    -0.07300
C1470       C  0.36804589  0.30313159  0.88456646    -0.08100
C1471       C  0.40211876  0.33535202  0.90570718    -0.02600
C1472       C  0.44497741  0.38105485  0.89735381     0.04200
N1473       N  0.47658548  0.41968185  0.91716696     0.66700
H1474       H  0.49091926  0.42487134  0.86367076     0.15600
H1475       H  0.33288045  0.26919210  0.89029286     0.15300
N1476       N  0.34338223  0.27832713  0.83572712     0.74400
O1477       O  0.51728691  0.42212172  0.92600018    -0.39100
O1478       O  0.47011829  0.45751197  0.92064381    -0.39000
O1479       O  0.34013658  0.23565375  0.83100736    -0.39700
O1480       O  0.30745627  0.28555252  0.82783296    -0.39800
C1481       C  0.61036317  0.57312035  0.63248020    -0.12100
C1482       C  0.62062325  0.54617422  0.65343818     0.05000
C1483       C  0.64751718  0.52105913  0.64610510    -0.07300
C1484       C  0.66392776  0.52368488  0.61876876    -0.08100
C1485       C  0.65432685  0.55102444  0.59804043    -0.02600
C1486       C  0.62637719  0.57501243  0.60486187     0.04200
N1487       N  0.61458838  0.60161263  0.58408495     0.66700
H1488       H  0.58813051  0.59123838  0.63735689     0.15600
H1489       H  0.68480293  0.50414645  0.61370257     0.15300
N1490       N  0.65595575  0.49014993  0.66557906     0.74400
O1491       O  0.64961395  0.64404951  0.57537222    -0.39100
O1492       O  0.57379980  0.57746651  0.56991859    -0.39000
O1493       O  0.62462206  0.44275494  0.66624078    -0.39700
O1494       O  0.69985058  0.50714791  0.67637926    -0.39800
C1495       C  0.64097284  0.51151241  0.90106666    -0.12100
C1496       C  0.66693176  0.56456043  0.90548105     0.05000
C1497       C  0.68602704  0.59692834  0.88193425    -0.07300
C1498       C  0.67451809  0.57600114  0.85485032    -0.08100
C1499       C  0.64635864  0.52298461  0.85052558    -0.02600
C1500       C  0.63296094  0.49083480  0.87402660     0.04200
N1501       N  0.61257972  0.43703436  0.87051851     0.66700
H1502       H  0.63005482  0.48596822  0.91873754     0.15600
H1503       H  0.68462465  0.60151307  0.83718976     0.15300
N1504       N  0.71761255  0.65112163  0.88512566     0.74400
O1505       O  0.64294356  0.42013171  0.86726716    -0.39100
O1506       O  0.56668075  0.40637373  0.87653669    -0.39000
O1507       O  0.76342522  0.67282409  0.87725802    -0.39700
O1508       O  0.69739220  0.67798828  0.89019685    -0.39800
C1509       C  0.54100879  0.68560614  0.63343444    -0.12100
C1510       C  0.58649243  0.69155396  0.62218633     0.05000
C1511       C  0.62627341  0.69843983  0.64075791    -0.07300
C1512       C  0.61647524  0.68938608  0.66924438    -0.08100
C1513       C  0.56929446  0.67865469  0.67992399    -0.02600
C1514       C  0.53355878  0.68191820  0.66232212     0.04200
N1515       N  0.49090670  0.68356605  0.67400318     0.66700
H1516       H  0.51246619  0.68647875  0.61990398     0.15600
H1517       H  0.64473913  0.68792772  0.68278082     0.15300
N1518       N  0.67706630  0.71604255  0.63126507     0.74400
O1519       O  0.45460078  0.64385611  0.68444434    -0.39100
O1520       O  0.49612987  0.72649978  0.68043352    -0.39000
O1521       O  0.70812825  0.76353016  0.63123344    -0.39700
O1522       O  0.69445621  0.68572813  0.63126423    -0.39800
C1523       C  0.55836390  0.58827775  0.89527988    -0.12100
C1524       C  0.57117755  0.62010432  0.87156575     0.05000
C1525       C  0.59924411  0.67340245  0.87549979    -0.07300
C1526       C  0.61184168  0.69329647  0.90252779    -0.08100
C1527       C  0.59300804  0.66162839  0.92607721    -0.02600
C1528       C  0.56686406  0.60838649  0.92227294     0.04200
N1529       N  0.54424504  0.57429521  0.94514832     0.66700
H1530       H  0.53768870  0.54703417  0.89308608     0.15600
H1531       H  0.63509095  0.73430518  0.90493023     0.15300
N1532       N  0.61525657  0.70806944  0.85259493     0.74400
O1533       O  0.49776336  0.55759354  0.95058034    -0.39100
O1534       O  0.57196853  0.56692694  0.96222034    -0.39000
O1535       O  0.58962577  0.72927366  0.84609545    -0.39700
O1536       O  0.66025146  0.72656108  0.84375191    -0.39800
C1537       C  0.31850935  0.41536229  0.66478334    -0.12100
C1538       C  0.34464727  0.46843526  0.66920398     0.05000
C1539       C  0.35634538  0.50082191  0.64574368    -0.07300
C1540       C  0.34503212  0.48018397  0.61884862    -0.08100
C1541       C  0.32143616  0.42756571  0.61438555    -0.02600
C1542       C  0.30628046  0.39475306  0.63767393     0.04200
N1543       N  0.27907720  0.34049200  0.63414963     0.66700
H1544       H  0.31017919  0.38978302  0.68227840     0.15600
H1545       H  0.35369037  0.50569833  0.60126100     0.15300
N1546       N  0.38129261  0.55510817  0.64856296     0.74400
O1547       O  0.30365173  0.31685261  0.63313244    -0.39100
O1548       O  0.23175708  0.31585133  0.63884802    -0.39000
O1549       O  0.35427171  0.57574406  0.65225741    -0.39700
O1550       O  0.42526585  0.58143564  0.63840182    -0.39800
C1551       C  0.33162980  0.40115227  0.87311476    -0.12100
C1552       C  0.36285128  0.45268263  0.86631785     0.01700
C1553       C  0.38212010  0.48965264  0.88775253    -0.07300
C1554       C  0.37299669  0.47468551  0.91561640    -0.08100
C1555       C  0.34244742  0.42316286  0.92258515    -0.02600
C1556       C  0.32014151  0.38577691  0.90102117     0.04200
N1557       N  0.28616382  0.33245687  0.90695977     0.66700
H1558       H  0.31831422  0.37252778  0.85667288     0.15600
H1559       H  0.38747718  0.50383368  0.93182554     0.15300
N1560       N  0.41015857  0.54282328  0.88138692     0.74400
O1561       O  0.25341576  0.30381336  0.88896706    -0.39100
O1562       O  0.29088428  0.31281948  0.92924164    -0.39000
O1563       O  0.38606200  0.56606645  0.87604054    -0.39700
O1564       O  0.45682722  0.56835996  0.88796047    -0.39800
C1565       C  0.93584527  0.63496163  0.60259858    -0.12100
C1566       C  0.94196424  0.60812110  0.58008268     0.05000
C1567       C  0.96361566  0.57734072  0.58549882    -0.07300
C1568       C  0.97373417  0.57006491  0.61298837    -0.08100
C1569       C  0.96142496  0.59137877  0.63607853    -0.02600
C1570       C  0.94430294  0.62608217  0.63040826     0.04200
N1571       N  0.93272461  0.65058841  0.65232878     0.66700
H1572       H  0.92077983  0.66038599  0.59886884     0.15600
H1573       H  0.98869908  0.54455397  0.61599234     0.15300
N1574       N  0.97040704  0.54867694  0.56381114     0.74400
O1575       O  0.96542463  0.69570416  0.65933946    -0.39100
O1576       O  0.88675835  0.63291314  0.65929102    -0.39000
O1577       O  0.00389787  0.57135974  0.54550834    -0.39700
O1578       O  0.93872455  0.50161295  0.56091751    -0.39800
C1579       C  0.91568204  0.62162340  0.87182693    -0.12100
C1580       C  0.92687635  0.59517086  0.89257536     0.05000
C1581       C  0.95800220  0.57443088  0.88553210    -0.07300
C1582       C  0.97195971  0.57563147  0.85764615    -0.08100
C1583       C  0.95673801  0.59813279  0.83653879    -0.02600
C1584       C  0.92975506  0.62281979  0.84408044     0.04200
N1585       N  0.91724798  0.65017266  0.82416504     0.66700
H1586       H  0.89401881  0.64025453  0.87697168     0.15600
H1587       H  0.99415103  0.55761435  0.85241648     0.15300
N1588       N  0.97492044  0.55116940  0.90586035     0.74400
O1589       O  0.87144581  0.63171617  0.81602353    -0.39100
O1590       O  0.94823960  0.69709263  0.82058470    -0.39000
O1591       O  0.97409084  0.51003077  0.89983792    -0.39700
O1592       O  0.00224770  0.57761816  0.92620360    -0.39800
C1593       C  0.88594465  0.33650224  0.64429593    -0.12100
C1594       C  0.86919858  0.37212534  0.64726123     0.05000
C1595       C  0.85626091  0.38981069  0.62280239    -0.07300
C1596       C  0.86219169  0.37357282  0.59628699    -0.08100
C1597       C  0.88109835  0.33984178  0.59338810    -0.02600
C1598       C  0.89265929  0.32089859  0.61779480     0.04200
N1599       N  0.91132252  0.28562645  0.61581417     0.66700
H1600       H  0.89792231  0.32386746  0.66258019     0.15600
H1601       H  0.85020008  0.38602035  0.57793174     0.15300
N1602       N  0.83706488  0.42443314  0.62449205     0.74400
O1603       O  0.94707970  0.29432207  0.59935925    -0.39100
O1604       O  0.88731257  0.24252842  0.62733304    -0.39000
O1605       O  0.86645467  0.47101307  0.61913901    -0.39700
O1606       O  0.78935198  0.40672023  0.62334696    -0.39800
C1607       C  0.87957157  0.40003364  0.86999122    -0.12100
C1608       C  0.88889952  0.37919278  0.84599934     0.05000
C1609       C  0.89986936  0.33917913  0.84944261    -0.07300
C1610       C  0.90661502  0.32492059  0.87635600    -0.08100
C1611       C  0.89940055  0.34717582  0.90046935    -0.02600
C1612       C  0.88281607  0.38327435  0.89690149     0.04200
N1613       N  0.86499557  0.40024375  0.91982028     0.66700
H1614       H  0.86990055  0.42999268  0.86783346     0.15600
H1615       H  0.91688955  0.29539805  0.87834346     0.15300
N1616       N  0.90445279  0.31256629  0.82595346     0.74400
O1617       O  0.89641800  0.43852058  0.93404346    -0.39100
O1618       O  0.81794483  0.38578730  0.92114546    -0.39000
O1619       O  0.94655054  0.31464563  0.82145382    -0.39700
O1620       O  0.86429742  0.27701239  0.81481641    -0.39800
C1621       C  0.05391312  0.36308329  0.64298213    -0.12100
C1622       C  0.04081565  0.40106256  0.64681975     0.05000
C1623       C  0.03352043  0.42459017  0.62266453    -0.07300
C1624       C  0.04346598  0.41330214  0.59638998    -0.08100
C1625       C  0.05852112  0.37736598  0.59244379    -0.02600
C1626       C  0.06028952  0.34895365  0.61582100     0.04200
N1627       N  0.06392148  0.30350267  0.61222620     0.66700
H1628       H  0.05571806  0.34220409  0.66091523     0.15600
H1629       H  0.04002415  0.43406949  0.57882772     0.15300
N1630       N  0.01584837  0.46053947  0.62379434     0.74400
O1631       O  0.08084621  0.28797298  0.63185977    -0.39100
O1632       O  0.04091038  0.27360373  0.59199767    -0.39000
O1633       O  0.04474761  0.50480943  0.61481364    -0.39700
O1634       O  0.96843979  0.44371258  0.62240006    -0.39800
C1635       C  0.02776705  0.42824894  0.87430670    -0.12100
C1636       C  0.04099366  0.40989514  0.85028598     0.05000
C1637       C  0.06886648  0.38440621  0.85426168    -0.07300
C1638       C  0.08747421  0.38303588  0.88098916    -0.08100
C1639       C  0.08016147  0.40791189  0.90399251    -0.02600
C1640       C  0.04831815  0.42907046  0.90065391     0.04200
N1641       N  0.04228537  0.45781561  0.92256206     0.66700
H1642       H  0.00492882  0.44668728  0.87248960     0.15600
H1643       H  0.11042064  0.36477423  0.88338514     0.15300
N1644       N  0.08093824  0.36197276  0.83146875     0.74400
O1645       O  0.07548046  0.50430674  0.92600259    -0.39100
O1646       O  0.99980978  0.44020963  0.93448144    -0.39000
O1647       O  0.12587722  0.38415743  0.82221490    -0.39700
O1648       O  0.05148100  0.31535413  0.82570157    -0.39800
C1649       C  0.13221228  0.59753622  0.62249068    -0.12100
C1650       C  0.12116939  0.61753961  0.64616337     0.05000
C1651       C  0.10973275  0.65708022  0.64255373    -0.07300
C1652       C  0.10221416  0.67038493  0.61575516    -0.08100
C1653       C  0.10946563  0.64787663  0.59178707    -0.02600
C1654       C  0.12658010  0.61231649  0.59542897     0.04200
N1655       N  0.13932313  0.59146935  0.57215414     0.66700
H1656       H  0.14219494  0.56785237  0.62495869     0.15600
H1657       H  0.09142113  0.69954348  0.61380444     0.15300
N1658       N  0.10586798  0.68451155  0.66586113     0.74400
O1659       O  0.18572694  0.60985480  0.56597749    -0.39100
O1660       O  0.10683753  0.54794002  0.56280084    -0.39000
O1661       O  0.14609846  0.72265607  0.67521139    -0.39700
O1662       O  0.06322789  0.68042308  0.67141911    -0.39800
C1663       C  0.11044755  0.66894445  0.84548679    -0.12100
C1664       C  0.12394990  0.63104563  0.84258884     0.05000
C1665       C  0.13675804  0.61289149  0.86675586    -0.07300
C1666       C  0.13163251  0.62941310  0.89324757    -0.08100
C1667       C  0.11575279  0.66560632  0.89627080    -0.02600
C1668       C  0.10663610  0.68659994  0.87191166     0.04200
N1669       N  0.09108685  0.72415508  0.87356352     0.66700
H1670       H  0.09894087  0.68217997  0.82725684     0.15600
H1671       H  0.14204057  0.61528882  0.91151272     0.15300
N1672       N  0.15637176  0.57862722  0.86461654     0.74400
O1673       O  0.12359254  0.77043438  0.86934477    -0.39100
O1674       O  0.04413119  0.71002198  0.87170703    -0.39000
O1675       O  0.20386431  0.59603371  0.86744526    -0.39700
O1676       O  0.12637597  0.53116120  0.86656049    -0.39800
C1677       C  0.34200291  0.83596573  0.63378131    -0.12100
C1678       C  0.32604041  0.85460075  0.65602522     0.05000
C1679       C  0.29644310  0.87747924  0.64951491    -0.07300
C1680       C  0.29104404  0.88875583  0.62156154    -0.08100
C1681       C  0.31488259  0.87772201  0.59957039    -0.02600
C1682       C  0.33974528  0.84962405  0.60604980     0.04200
N1683       N  0.36275871  0.83401350  0.58512670     0.66700
H1684       H  0.36159319  0.81511065  0.63843468     0.15600
H1685       H  0.26807548  0.90637709  0.61702895     0.15300
N1686       N  0.26992629  0.88746317  0.67085431     0.74400
O1687       O  0.40375301  0.86704010  0.57408726    -0.39100
O1688       O  0.35061238  0.78754857  0.58345945    -0.39000
O1689       O  0.28653576  0.93261124  0.67941513    -0.39700
O1690       O  0.22482265  0.85354669  0.67650778    -0.39800
C1691       C  0.37514119  0.95300729  0.87022205    -0.12100
C1692       C  0.36641045  0.91370482  0.85120907     0.05000
C1693       C  0.34858308  0.86400874  0.86147139    -0.07300
C1694       C  0.34252609  0.85542144  0.89021860    -0.08100
C1695       C  0.35245613  0.89499449  0.90934609    -0.02600
C1696       C  0.36860397  0.94415144  0.89894837     0.04200
N1697       N  0.38229491  0.98627822  0.91731161     0.66700
H1698       H  0.39061142  0.99180176  0.86288870     0.15600
H1699       H  0.33182673  0.81761152  0.89763774     0.15300
N1700       N  0.34189081  0.82311277  0.84359759     0.74400
O1701       O  0.42888620  0.01749430  0.92228246    -0.39100
O1702       O  0.34832138  0.99529751  0.92613103    -0.39000
O1703       O  0.37738322  0.81262712  0.84190254    -0.39700
O1704       O  0.29732151  0.79027118  0.83572120    -0.39800
C1705       C  0.60996046  0.92092435  0.65381872    -0.12100
C1706       C  0.55727327  0.90147996  0.65773605     0.05000
C1707       C  0.52693147  0.89506205  0.63355868    -0.07300
C1708       C  0.54827387  0.90821553  0.60722757    -0.08100
C1709       C  0.59960365  0.92489886  0.60293587    -0.02600
C1710       C  0.63155235  0.93240572  0.62671105     0.04200
N1711       N  0.68571261  0.95271659  0.62385859     0.66700
H1712       H  0.63456616  0.92824039  0.67189543     0.15600
H1713       H  0.52278130  0.90105745  0.58954030     0.15300
N1714       N  0.47310691  0.87346320  0.63470337     0.74400
O1715       O  0.70987915  0.98450332  0.60493646    -0.39100
O1716       O  0.71051775  0.94332964  0.64201407    -0.39000
O1717       O  0.45457396  0.90156203  0.62846087    -0.39700
O1718       O  0.44560803  0.82558612  0.63224893    -0.39800
C1719       C  0.55540613  0.94390644  0.90643407    -0.12100
C1720       C  0.58895071  0.92506434  0.90929912     0.05000
C1721       C  0.61534652  0.92343060  0.88530547    -0.07300
C1722       C  0.60329706  0.93488286  0.85881721    -0.08100
C1723       C  0.56619703  0.94945715  0.85559672    -0.02600
C1724       C  0.54360325  0.95568101  0.88011706     0.04200
N1725       N  0.50177140  0.96482016  0.87852087     0.66700
H1726       H  0.53403032  0.94454182  0.92432687     0.15600
H1727       H  0.62293998  0.93207687  0.84069983     0.15300
N1728       N  0.65543263  0.91141034  0.88751269     0.74400
O1729       O  0.45750676  0.92670754  0.88002664    -0.39100
O1730       O  0.50874827  0.00850494  0.88471046    -0.39000
O1731       O  0.65141547  0.87341956  0.87423748    -0.39700
O1732       O  0.69919638  0.94596599  0.89550071    -0.39800
C1733       C  0.58083024  0.04567523  0.60772253    -0.12100
C1734       C  0.61127126  0.05528807  0.63195407     0.05000
C1735       C  0.66353515  0.07175812  0.62891481    -0.07300
C1736       C  0.68390079  0.07731761  0.60218506    -0.08100
C1737       C  0.65409475  0.07017584  0.57796031    -0.02600
C1738       C  0.60187672  0.05384113  0.58104798     0.04200
N1739       N  0.57067567  0.04928052  0.55746608     0.66700
H1740       H  0.54053864  0.03311385  0.60953018     0.15600
H1741       H  0.72409006  0.08932078  0.60053015     0.15300
N1742       N  0.69680914  0.08380576  0.65258502     0.74400
O1743       O  0.55037212  0.00849216  0.54321659    -0.39100
O1744       O  0.57383796  0.08931365  0.54728560    -0.39000
O1745       O  0.70878563  0.05151922  0.66100072    -0.39700
O1746       O  0.72403960  0.12999670  0.65994539    -0.39800
C1747       C  0.62111455  0.11703460  0.85142617    -0.12100
C1748       C  0.64000272  0.10167324  0.82882393     0.05000
C1749       C  0.67540994  0.08516759  0.83447418    -0.07300
C1750       C  0.69055051  0.08406973  0.86214130    -0.08100
C1751       C  0.67088598  0.09900820  0.88448666    -0.02600
C1752       C  0.63583583  0.11571372  0.87886138     0.04200
N1753       N  0.61800322  0.13557116  0.90042751     0.66700
H1754       H  0.59397105  0.12991751  0.84796077     0.15600
H1755       H  0.71881435  0.07259943  0.86616826     0.15300
N1756       N  0.69581543  0.06871105  0.81266486     0.74400
O1757       O  0.64364584  0.18241447  0.90675615    -0.39100
O1758       O  0.57220698  0.10997361  0.90817854    -0.39000
O1759       O  0.74005978  0.09899695  0.80386276    -0.39700
O1760       O  0.67577779  0.02157433  0.80739472    -0.39800
C1761       C  0.42672133  0.00947345  0.60551607    -0.12100
C1762       C  0.41127762  0.02634329  0.62905846     0.05000
C1763       C  0.38123123  0.04933279  0.62472831    -0.07300
C1764       C  0.37033582  0.05787814  0.59748518    -0.08100
C1765       C  0.39283118  0.04870566  0.57405969    -0.02600
C1766       C  0.41929618  0.02152037  0.57823220     0.04200
N1767       N  0.44082001  0.00749330  0.55565176     0.66700
H1768       H  0.44807451  0.98966493  0.60822407     0.15600
H1769       H  0.34617322  0.07462716  0.59487840     0.15300
N1770       N  0.36347990  0.06647827  0.64760273     0.74400
O1771       O  0.47352115  0.04158198  0.54021063    -0.39100
O1772       O  0.43728980  0.96406664  0.55552430    -0.39000
O1773       O  0.38800755  0.11277666  0.65516735    -0.39700
O1774       O  0.32614251  0.03476018  0.66178376    -0.39800
C1775       C  0.37756076  0.07189695  0.83315484    -0.12100
C1776       C  0.42589392  0.10564905  0.82236422     0.05000
C1777       C  0.46351862  0.14237442  0.84042931    -0.07300
C1778       C  0.45524722  0.13982567  0.86906886    -0.08100
C1779       C  0.40839113  0.10375788  0.88024579    -0.02600
C1780       C  0.36765256  0.07131178  0.86188286     0.04200
N1781       N  0.31752808  0.03534428  0.87194168     0.66700
H1782       H  0.34867027  0.04314873  0.81946871     0.15600
H1783       H  0.48529281  0.16761832  0.88264754     0.15300
N1784       N  0.51129128  0.18152477  0.83001767     0.74400
O1785       O  0.29070025  0.99323228  0.85936963    -0.39100
O1786       O  0.29810915  0.04669385  0.89195367    -0.39000
O1787       O  0.51718297  0.22545653  0.82599972    -0.39700
O1788       O  0.55032506  0.17674974  0.83252822    -0.39800
loop_ 
_geom_bond_atom_site_label_1 
_geom_bond_atom_site_label_2 
_geom_bond_distance 
_geom_bond_site_symmetry_2 
_ccdc_geom_bond_type 
O1          Zr13   2.515       .  S
O1            C3   1.300       .  A
O2          Zr39   2.346       .  S
O2            C3   1.271       .  A
C3          C882   1.476       .  S
O4          Zr16   2.503       .  S
O4            C6   1.295       .  A
O5          Zr40   2.374       .  S
O5            C6   1.275       .  A
C6          C784   1.485       .  S
O7          Zr16   2.481       .  S
O7            C9   1.294       .  A
O8          Zr39   2.393   1_565  S
O8            C9   1.280       .  A
C9          C798   1.495       .  S
O10         Zr13   2.515       .  S
O10          C12   1.302       .  A
O11         Zr40   2.359   1_545  S
O11          C12   1.274       .  A
C12         C868   1.498       .  S
Zr13         O14   2.433       .  S
Zr13         O15   2.436       .  S
Zr13         O19   2.283       .  S
Zr13         O43   2.288       .  S
Zr13         O20   2.355   1_545  S
Zr13         O45   2.371       .  S
O14          H57   0.990       .  S
O15          H56   0.990       .  S
O15          H60   0.990       .  S
Zr16         O17   2.434       .  S
Zr16         O18   2.434       .  S
Zr16         O19   2.284   1_565  S
Zr16         O46   2.293       .  S
Zr16         O20   2.378       .  S
Zr16         O44   2.392       .  S
O17          H58   0.990       .  S
O17          H61   0.990       .  S
O18          H51   0.990       .  S
O19         Zr39   2.260       .  S
O20         Zr40   2.377       .  S
O20          H47   0.964       .  S
O21         Zr33   2.499       .  S
O21          C23   1.296       .  A
O22         Zr40   2.373   1_545  S
O22          C23   1.277       .  A
C23         C840   1.480       .  S
O24         Zr36   2.513       .  S
O24          C26   1.301       .  A
O25         Zr39   2.394   1_565  S
O25          C26   1.280       .  A
C26         C829   1.501       .  S
O27         Zr36   2.515       .  S
O27          C29   1.290       .  A
O28         Zr40   2.385       .  S
O28          C29   1.263       .  A
C29         C812   1.512       .  S
O30         Zr33   2.479       .  S
O30          C32   1.283       .  A
O31         Zr39   2.371       .  S
O31          C32   1.258       .  A
C32         C854   1.482       .  S
Zr33         O34   2.438       .  S
Zr33         O35   2.436       .  S
Zr33         O42   2.292       .  S
Zr33         O43   2.291       .  S
Zr33         O41   2.356   1_545  S
Zr33         O45   2.399       .  S
O34          H54   0.990       .  S
O34          H59   0.990       .  S
O35          H55   0.990       .  S
Zr36         O37   2.434       .  S
Zr36         O38   2.434       .  S
Zr36         O42   2.279   1_565  S
Zr36         O46   2.307       .  S
Zr36         O41   2.406       .  S
Zr36         O44   2.400       .  S
O37          H53   0.990       .  S
O38          H52   0.989       .  S
O38          H62   0.990       .  S
Zr39         O42   2.269       .  S
Zr39         O44   2.381   1_545  S
Zr39         O45   2.396       .  S
Zr40         O43   2.265   1_565  S
Zr40         O46   2.261       .  S
Zr40         O41   2.391       .  S
O41          H49   0.964       .  S
O44          H48   0.966       .  S
O45          H50   0.967       .  S
O63         Zr75   2.511       .  S
O63          C65   1.299       .  A
O64        Zr101   2.357   1_455  S
O64          C65   1.271       .  A
C65         C770   1.474       .  S
O66         Zr78   2.524       .  S
O66          C68   1.300       .  A
O67        Zr102   2.318       .  S
O67          C68   1.266       .  A
C68         C675   1.487       .  S
O69         Zr78   2.457       .  S
O69          C71   1.283       .  A
O70        Zr101   2.389   1_455  S
O70          C71   1.263   1_455  A
C71         C689   1.473       .  S
O72         Zr75   2.477       .  S
O72          C74   1.292       .  A
O73        Zr102   2.412   1_455  S
O73          C74   1.280       .  A
C74         C756   1.487       .  S
Zr75         O76   2.434       .  S
Zr75         O77   2.434       .  S
Zr75         O81   2.278       .  S
Zr75        O105   2.292       .  S
Zr75         O82   2.388       .  S
Zr75        O107   2.369       .  S
O76         H119   0.990       .  S
O77         H118   0.990       .  S
O77         H122   0.990       .  S
Zr78         O79   2.435   1_655  S
Zr78         O80   2.433       .  S
Zr78         O81   2.303   1_655  S
Zr78        O108   2.280       .  S
Zr78         O82   2.357   1_655  S
Zr78        O106   2.417       .  S
O79         H120   0.990       .  S
O79         H123   0.990       .  S
O80         H113   0.990       .  S
O81        Zr101   2.250   1_455  S
O82        Zr102   2.367   1_455  S
O82         H109   0.963       .  S
O83         Zr95   2.534       .  S
O83          C85   1.303       .  A
O84        Zr102   2.309       .  S
O84          C85   1.255   1_655  A
C85         C728   1.479       .  S
O86         Zr98   2.499       .  S
O86          C88   1.295       .  A
O87        Zr101   2.383       .  S
O87          C88   1.276       .  A
C88         C714   1.492       .  S
O89         Zr98   2.504       .  S
O89          C91   1.296       .  A
O90        Zr102   2.402       .  S
O90          C91   1.275       .  A
C91         C700   1.490       .  S
O92         Zr95   2.520       .  S
O92          C94   1.302       .  A
O93        Zr101   2.340   1_455  S
O93          C94   1.272       .  A
C94         C742   1.498       .  S
Zr95         O96   2.436   1_455  S
Zr95         O97   2.434       .  S
Zr95        O104   2.278   1_455  S
Zr95        O105   2.287       .  S
Zr95        O103   2.366   1_455  S
Zr95        O107   2.382       .  S
O96         H116   0.990   1_655  S
O96         H121   0.990       .  S
O97         H117   0.990       .  S
Zr98         O99   2.435       .  S
Zr98        O100   2.435       .  S
Zr98        O104   2.275       .  S
Zr98        O108   2.293       .  S
Zr98        O103   2.372       .  S
Zr98        O106   2.387       .  S
O99         H115   0.990       .  S
O100        H114   0.990       .  S
O100        H124   0.990       .  S
Zr101       O104   2.249       .  S
Zr101       O106   2.387       .  S
Zr101       O107   2.376   1_655  S
Zr102       O105   2.265   1_655  S
Zr102       O108   2.253       .  S
Zr102       O103   2.389       .  S
O103        H111   0.966       .  S
O106        H110   0.966       .  S
O107        H112   0.966       .  S
O125       Zr137   2.513       .  S
O125        C127   1.301       .  A
O126       Zr163   2.329       .  S
O126        C127   1.270       .  A
C127        C630   1.471       .  S
O128       Zr140   2.445       .  S
O128        C130   1.285       .  A
O129       Zr164   2.356       .  S
O129        C130   1.272       .  A
C130        C644   1.445       .  S
O131       Zr140   2.465       .  S
O131        C133   1.290       .  A
O132       Zr163   2.383       .  S
O132        C133   1.278       .  A
C133        C658   1.465       .  S
O134       Zr137   2.490       .  S
O134        C136   1.292       .  A
O135       Zr164   2.358       .  S
O135        C136   1.267       .  A
C136        C619   1.476       .  S
Zr137       O138   2.436       .  S
Zr137       O139   2.435       .  S
Zr137       O143   2.283       .  S
Zr137       O167   2.288       .  S
Zr137       O144   2.385       .  S
Zr137       O169   2.358       .  S
O138        H181   0.990       .  S
O139        H180   0.990       .  S
O139        H184   0.990       .  S
Zr140       O141   2.437       .  S
Zr140       O142   2.436       .  S
Zr140       O143   2.275       .  S
Zr140       O170   2.281       .  S
Zr140       O144   2.383       .  S
Zr140       O168   2.360       .  S
O141        H182   0.990       .  S
O141        H185   0.990       .  S
O142        H175   0.990       .  S
O143       Zr163   2.258       .  S
O144       Zr164   2.379       .  S
O144        H171   0.966       .  S
O145       Zr157   2.485       .  S
O145        C147   1.296       .  A
O146       Zr164   2.392       .  S
O146        C147   1.278       .  A
C147        C588   1.498       .  S
O148       Zr160   2.508       .  S
O148        C150   1.297       .  A
O149       Zr163   2.362       .  S
O149        C150   1.273       .  A
C150        C574   1.481       .  S
O151       Zr160   2.476       .  S
O151        C153   1.294       .  A
O152       Zr164   2.372       .  S
O152        C153   1.275       .  A
C153        C560   1.482       .  S
O154       Zr157   2.492       .  S
O154        C156   1.286       .  A
O155       Zr163   2.387       .  S
O155        C156   1.265       .  A
C156        C605   1.503       .  S
Zr157       O158   2.433       .  S
Zr157       O159   2.434       .  S
Zr157       O166   2.304       .  S
Zr157       O167   2.284       .  S
Zr157       O165   2.389       .  S
Zr157       O169   2.392       .  S
O158        H178   0.990       .  S
O158        H183   0.990       .  S
O159        H179   0.990       .  S
Zr160       O161   2.434       .  S
Zr160       O162   2.437       .  S
Zr160       O166   2.287       .  S
Zr160       O170   2.281       .  S
Zr160       O165   2.399       .  S
Zr160       O168   2.378       .  S
O161        H177   0.990       .  S
O162        H176   0.990       .  S
O162        H186   0.990       .  S
Zr163       O166   2.256       .  S
Zr163       O168   2.362       .  S
Zr163       O169   2.390       .  S
Zr164       O167   2.263       .  S
Zr164       O170   2.257       .  S
Zr164       O165   2.378       .  S
O165        H173   0.966       .  S
O168        H172   0.965       .  S
O169        H174   0.964       .  S
O187       Zr199   2.381   1_556  S
O187        C189   1.278       .  A
O188       Zr225   2.535       .  S
O188        C189   1.303       .  A
C189       C1154   1.511       .  S
O190       Zr202   2.424       .  S
O190        C192   1.274       .  A
O191       Zr226   2.463       .  S
O191        C192   1.293       .  A
C192        C602   1.483       .  S
O193       Zr202   2.400       .  S
O193        C195   1.280       .  A
O194      Zr1119   2.441       .  S
O194        C195   1.288       .  A
C195        C686   1.483       .  S
O196      Zr1093   2.389       .  S
O196        C198   1.280       .  A
O197       Zr226   2.566       .  S
O197        C198   1.309       .  A
C198        C502   1.530       .  S
Zr199      O1090   2.416       .  S
Zr199       O201   2.436       .  S
Zr199      O1094   2.434   1_554  S
Zr199       O229   2.346       .  S
Zr199       O231   2.359       .  S
Zr199      O1099   2.387   1_554  S
Zr199      O1100   2.361   1_554  S
O200      Zr1093   2.435       .  S
O200        H243   0.990       .  S
O201        H242   0.990       .  S
O201        H246   0.990       .  S
Zr202       O203   2.438       .  S
Zr202       O204   2.431       .  S
Zr202       O206   2.374       .  S
Zr202       O205   2.376       .  S
Zr202       O230   2.372       .  S
Zr202       O232   2.354       .  S
O203        H244   0.990       .  S
O203        H247   0.990       .  S
O204        H237   0.990       .  S
O205      Zr1093   2.364       .  S
O205      Zr1119   2.385       .  S
O206       Zr226   2.396       .  S
O206      Zr1093   2.367       .  S
O206        H233   0.966       .  S
O207       Zr219   2.381       .  S
O207        C209   1.275       .  A
O208      Zr1120   2.482       .  S
O208        C209   1.298       .  A
C209        C591   1.494       .  S
O210       Zr222   2.613       .  S
O210       C1106   1.322       .  A
O211       Zr225   2.398       .  S
O211        C212   1.287       .  A
C212       O1104   1.320       .  A
C212       C1233   1.545   1_655  S
O213       Zr222   2.584       .  S
O213        C215   1.315       .  A
O214       Zr226   2.414       .  S
O214        C215   1.291       .  A
C215        C395   1.535       .  S
O216       Zr219   2.414       .  S
O216        C218   1.272       .  A
O217       Zr225   2.425   1_554  S
O217        C218   1.282       .  A
C218        C672   1.476       .  S
Zr219       O220   2.439       .  S
Zr219       O221   2.435       .  S
Zr219       O227   2.371       .  S
Zr219       O228   2.347       .  S
Zr219       O231   2.373       .  S
Zr219       O229   2.377       .  S
O220        H240   0.990       .  S
O220        H245   0.990       .  S
O221        H241   0.989       .  S
Zr222       O224   2.435       .  S
Zr222      O1117   2.433       .  S
Zr222       O232   2.372       .  S
Zr222       O230   2.401       .  S
Zr222      O1122   2.360       .  S
Zr222      O1121   2.428       .  S
O223      Zr1116   2.434   1_554  S
O223        H239   0.990       .  S
O224        H238   0.990       .  S
O224        H248   0.990       .  S
Zr225      O1088   2.463       .  S
Zr225       O228   2.414   1_556  S
Zr225       O231   2.410   1_556  S
Zr225      O1099   2.374       .  S
Zr225      O1124   2.413       .  S
Zr226      O1102   2.457       .  S
Zr226       O232   2.409       .  S
Zr226      O1121   2.432       .  S
Zr226      O1123   2.376       .  S
O227      Zr1116   2.403   1_554  S
O227      Zr1120   2.433       .  S
O227        H235   0.966       .  S
O228      Zr1116   2.363   1_554  S
O229      Zr1120   2.386       .  S
O230      Zr1119   2.427       .  S
O230        H234   0.965       .  S
O231        H236   0.966       .  S
O249       Zr261   2.405       .  S
O249        C251   1.284       .  A
O250       Zr287   2.567       .  S
O250        C251   1.308       .  A
C251       C1399   1.541       .  S
O252       Zr264   2.413       .  S
O252        C254   1.274       .  A
O253       Zr288   2.455       .  S
O253        C254   1.285       .  A
C254        C717   1.496       .  S
O255       Zr264   2.402       .  S
O255        C257   1.272       .  A
O256      Zr1181   2.448       .  S
O256        C257   1.289       .  A
C257        C857   1.465       .  S
O258      Zr1155   2.426       .  S
O258        C260   1.288       .  A
O259       Zr288   2.521       .  S
O259        C260   1.300       .  A
C260       C1083   1.523       .  S
Zr261      O1152   2.426       .  S
Zr261       O263   2.434   1_556  S
Zr261      O1156   2.435       .  S
Zr261       O291   2.357   1_556  S
Zr261       O293   2.362   1_556  S
Zr261      O1161   2.369       .  S
Zr261      O1162   2.337       .  S
O262      Zr1155   2.435       .  S
O262        H305   0.990       .  S
O263        H304   0.990       .  S
O263        H308   0.990       .  S
Zr264       O265   2.435       .  S
Zr264       O266   2.435       .  S
Zr264       O268   2.372       .  S
Zr264       O267   2.379       .  S
Zr264       O292   2.383       .  S
Zr264       O294   2.373       .  S
O265        H306   0.990       .  S
O265        H309   0.990       .  S
O266        H299   0.990       .  S
O267      Zr1155   2.363       .  S
O267      Zr1181   2.386       .  S
O268       Zr288   2.410       .  S
O268      Zr1155   2.335       .  S
O268        H295   0.963       .  S
O269       Zr281   2.381       .  S
O269        C271   1.267       .  A
O270      Zr1182   2.495   1_554  S
O270        C271   1.294       .  A
C271        C703   1.486       .  S
O272       Zr284   2.575       .  S
O272       C1168   1.314       .  A
O273       Zr287   2.419       .  S
O273        C274   1.294       .  A
C274       O1166   1.313       .  A
C274        C404   1.528   1_545  S
O275       Zr284   2.571       .  S
O275        C277   1.312       .  A
O276       Zr288   2.446       .  S
O276        C277   1.299       .  A
C277       C1354   1.543   1_655  S
O278       Zr281   2.407       .  S
O278        C280   1.272       .  A
O279       Zr287   2.445   1_554  S
O279        C280   1.286       .  A
C280        C843   1.487       .  S
Zr281       O282   2.437       .  S
Zr281       O283   2.436       .  S
Zr281       O289   2.398       .  S
Zr281       O290   2.351       .  S
Zr281       O293   2.376       .  S
Zr281       O291   2.368       .  S
O282        H302   0.990       .  S
O282        H307   0.990       .  S
O283        H303   0.990       .  S
Zr284       O286   2.434       .  S
Zr284      O1179   2.434       .  S
Zr284       O294   2.394       .  S
Zr284       O292   2.386       .  S
Zr284      O1184   2.385       .  S
Zr284      O1183   2.396       .  S
O285      Zr1178   2.434   1_554  S
O285        H301   0.990       .  S
O286        H300   0.990       .  S
O286        H310   0.990       .  S
Zr287      O1150   2.451       .  S
Zr287       O290   2.415   1_556  S
Zr287       O293   2.392   1_556  S
Zr287      O1161   2.382       .  S
Zr287      O1186   2.431       .  S
Zr288      O1164   2.493       .  S
Zr288       O294   2.431       .  S
Zr288      O1183   2.420       .  S
Zr288      O1185   2.383       .  S
O289      Zr1178   2.397   1_554  S
O289      Zr1182   2.424   1_554  S
O289        H297   0.966       .  S
O290      Zr1178   2.381   1_554  S
O291      Zr1182   2.383   1_554  S
O292      Zr1181   2.434       .  S
O292        H296   0.965       .  S
O293        H298   0.966       .  S
O311       Zr323   2.434       .  S
O311        C313   1.289       .  A
O312       Zr349   2.533       .  S
O312        C313   1.301       .  A
C313        C381   1.530       .  S
O314       Zr326   2.407       .  S
O314        C316   1.269       .  A
O315       Zr350   2.460       .  S
O315        C316   1.286       .  A
C316        C773   1.484       .  S
O317       Zr326   2.404       .  S
O317        C319   1.270       .  A
O318      Zr1243   2.459       .  S
O318        C319   1.283       .  A
C319        C801   1.499       .  S
O320      Zr1217   2.410       .  S
O320        C322   1.284       .  A
O321       Zr350   2.525       .  S
O321        C322   1.301       .  A
C322       C1331   1.521       .  S
Zr323      O1214   2.411       .  S
Zr323       O325   2.435       .  S
Zr323      O1218   2.433   1_554  S
Zr323       O353   2.350       .  S
Zr323       O355   2.358       .  S
Zr323      O1223   2.331   1_554  S
Zr323      O1224   2.373   1_554  S
O324      Zr1217   2.434       .  S
O324        H367   0.990       .  S
O325        H366   0.990       .  S
O325        H370   0.989       .  S
Zr326       O327   2.438       .  S
Zr326       O328   2.438       .  S
Zr326       O330   2.383       .  S
Zr326       O329   2.370       .  S
Zr326       O354   2.381       .  S
Zr326       O356   2.371       .  S
O327        H368   0.988       .  S
O327        H371   0.989       .  S
O328        H361   0.989       .  S
O329      Zr1217   2.338       .  S
O329      Zr1243   2.385       .  S
O330       Zr350   2.407       .  S
O330      Zr1217   2.366       .  S
O330        H357   0.966       .  S
O331       Zr343   2.402       .  S
O331        C333   1.268       .  A
O332      Zr1244   2.482   1_554  S
O332        C333   1.287       .  A
C333        C759   1.495       .  S
O334       Zr346   2.574       .  S
O334       C1230   1.313       .  A
O335       Zr349   2.428       .  S
O335        C336   1.293   1_554  A
C336       O1228   1.313       .  A
C336        C528   1.533   1_565  S
O337       Zr346   2.590       .  S
O337        C339   1.316       .  A
O338       Zr350   2.443       .  S
O338        C339   1.299       .  A
C339       C1106   1.544   1_455  S
O340       Zr343   2.400       .  S
O340        C342   1.269       .  A
O341       Zr349   2.459       .  S
O341        C342   1.283       .  A
C342        C787   1.490       .  S
Zr343       O344   2.439       .  S
Zr343       O345   2.435       .  S
Zr343       O351   2.382       .  S
Zr343       O352   2.381       .  S
Zr343       O355   2.382       .  S
Zr343       O353   2.376       .  S
O344        H364   0.990       .  S
O344        H369   0.990       .  S
O345        H365   0.989       .  S
Zr346       O348   2.435       .  S
Zr346      O1241   2.433       .  S
Zr346       O356   2.391       .  S
Zr346       O354   2.414       .  S
Zr346      O1246   2.397       .  S
Zr346      O1245   2.396       .  S
O347      Zr1240   2.433   1_554  S
O347        H363   0.990       .  S
O348        H362   0.990       .  S
O348        H372   0.990       .  S
Zr349      O1212   2.454   1_554  S
Zr349       O352   2.436       .  S
Zr349       O355   2.406       .  S
Zr349      O1223   2.390   1_554  S
Zr349      O1248   2.449   1_554  S
Zr350      O1226   2.476       .  S
Zr350       O356   2.422       .  S
Zr350      O1245   2.446       .  S
Zr350      O1247   2.384       .  S
O351      Zr1240   2.399   1_554  S
O351      Zr1244   2.443   1_554  S
O351        H359   0.965       .  S
O352      Zr1240   2.402   1_554  S
O353      Zr1244   2.385   1_554  S
O354      Zr1243   2.443       .  S
O354        H358   0.965       .  S
O355        H360   0.962       .  S
O373       Zr385   2.419       .  S
O373        C375   1.279       .  A
O374      Zr1305   2.496       .  S
O374        C375   1.301       .  A
C375        C826   1.488       .  S
O376      Zr1282   2.439       .  S
O376        C378   1.289       .  A
O377       Zr412   2.558       .  S
O377        C378   1.307       .  A
C378        C446   1.543       .  S
O379       Zr388   2.395       .  S
O379        C381   1.280       .  A
O380       Zr411   2.561       .  S
O380        C381   1.309       .  A
O382       Zr385   2.406       .  S
O382        C384   1.270       .  A
O383       Zr412   2.457       .  S
O383        C384   1.285       .  A
C384        C633   1.479       .  S
Zr385       O386   2.440       .  S
Zr385       O387   2.438       .  S
Zr385       O391   2.361       .  S
Zr385       O392   2.378       .  S
Zr385       O415   2.363       .  S
Zr385       O417   2.372       .  S
O386        H429   0.990       .  S
O387        H428   0.989       .  S
O387        H432   0.990       .  S
Zr388      O1270   2.434       .  S
Zr388       O390   2.435       .  S
Zr388      O1283   2.432   1_554  S
Zr388       O416   2.368       .  S
Zr388       O418   2.356       .  S
Zr388      O1286   2.364   1_554  S
Zr388      O1285   2.381   1_554  S
O389      Zr1282   2.435       .  S
O389        H430   0.990       .  S
O389        H433   0.990       .  S
O390        H423   0.990       .  S
O391      Zr1282   2.386       .  S
O391      Zr1305   2.378       .  S
O392       Zr412   2.398       .  S
O392      Zr1282   2.362       .  S
O392        H419   0.965       .  S
O393       Zr405   2.587       .  S
O393        C395   1.317       .  A
O394       Zr412   2.419       .  S
O394        C395   1.293       .  A
O396       Zr408   2.404       .  S
O396        C398   1.270       .  A
O397       Zr411   2.466       .  S
O397        C398   1.291       .  A
C398        C815   1.492       .  S
O399       Zr408   2.397       .  S
O399        C401   1.267       .  A
O400      Zr1306   2.478       .  S
O400        C401   1.293       .  A
C401        C616   1.476       .  S
O402       Zr405   2.584       .  S
O402       C1298   1.315       .  A
O403       Zr411   2.393       .  S
O403        C404   1.287   1_554  A
C404       O1296   1.315       .  A
Zr405       O407   2.434       .  S
Zr405      O1300   2.436       .  S
Zr405       O417   2.396       .  S
Zr405       O415   2.374       .  S
Zr405      O1307   2.385       .  S
Zr405      O1308   2.381       .  S
O406      Zr1299   2.436       .  S
O406        H426   0.990       .  S
O406        H431   0.990       .  S
O407        H427   0.990       .  S
Zr408       O409   2.432       .  S
Zr408       O410   2.439       .  S
Zr408       O414   2.366       .  S
Zr408       O413   2.390       .  S
Zr408       O418   2.384       .  S
Zr408       O416   2.394       .  S
O409        H425   0.990       .  S
O410        H424   0.990       .  S
O410        H434   0.989       .  S
Zr411      O1268   2.481   1_554  S
Zr411       O414   2.426       .  S
Zr411       O416   2.408       .  S
Zr411      O1285   2.376   1_554  S
Zr411      O1311   2.416   1_554  S
Zr412      O1294   2.495       .  S
Zr412       O415   2.420       .  S
Zr412      O1307   2.428       .  S
Zr412      O1312   2.388       .  S
O413      Zr1299   2.396       .  S
O413      Zr1306   2.431       .  S
O413        H421   0.965       .  S
O414      Zr1299   2.381       .  S
O416        H420   0.966       .  S
O417      Zr1305   2.410       .  S
O417        H422   0.963       .  S
O418      Zr1306   2.380       .  S
O435       Zr447   2.393       .  S
O435        C437   1.281       .  A
O436       Zr473   2.532   1_556  S
O436        C437   1.301   1_556  A
C437       C1216   1.518   1_554  S
O438       Zr450   2.409       .  S
O438        C440   1.270       .  A
O439       Zr474   2.437       .  S
O439        C440   1.280       .  A
C440        C661   1.467       .  S
O441       Zr450   2.406       .  S
O441        C443   1.281       .  A
O442      Zr1367   2.457       .  S
O442        C443   1.293       .  A
C443        C745   1.482       .  S
O444      Zr1341   2.418       .  S
O444        C446   1.285       .  A
O445       Zr474   2.569       .  S
O445        C446   1.310       .  A
Zr447      O1338   2.422       .  S
Zr447       O449   2.435       .  S
Zr447      O1342   2.433   1_554  S
Zr447       O477   2.363       .  S
Zr447       O479   2.368       .  S
Zr447      O1347   2.372   1_554  S
Zr447      O1348   2.358   1_554  S
O448      Zr1341   2.434       .  S
O448        H491   0.990       .  S
O449        H490   0.989       .  S
O449        H494   0.990       .  S
Zr450       O451   2.438       .  S
Zr450       O452   2.436       .  S
Zr450       O454   2.380       .  S
Zr450       O453   2.367       .  S
Zr450       O478   2.378       .  S
Zr450       O480   2.356       .  S
O451        H492   0.989       .  S
O451        H495   0.990       .  S
O452        H485   0.990       .  S
O453      Zr1341   2.370       .  S
O453      Zr1367   2.377       .  S
O454       Zr474   2.401       .  S
O454      Zr1341   2.358       .  S
O454        H481   0.966       .  S
O455       Zr467   2.381       .  S
O455        C457   1.262       .  A
O456      Zr1368   2.475       .  S
O456        C457   1.291       .  A
C457        C647   1.457       .  S
O458       Zr470   2.614       .  S
O458       C1354   1.322       .  A
O459       Zr473   2.385   1_556  S
O459        C460   1.284       .  A
C460       O1352   1.320   1_556  A
C460       C1171   1.539   1_455  S
O461       Zr470   2.566       .  S
O461        C463   1.312       .  A
O462       Zr474   2.429       .  S
O462        C463   1.296       .  A
C463        C519   1.528       .  S
O464       Zr467   2.396       .  S
O464        C466   1.270       .  A
O465       Zr473   2.465       .  S
O465        C466   1.295       .  A
C466        C731   1.474       .  S
Zr467       O468   2.444       .  S
Zr467       O469   2.442       .  S
Zr467       O475   2.394       .  S
Zr467       O476   2.361       .  S
Zr467       O479   2.382       .  S
Zr467       O477   2.370       .  S
O468        H488   0.989       .  S
O468        H493   0.989       .  S
O469        H489   0.991       .  S
Zr470       O472   2.434       .  S
Zr470      O1365   2.434       .  S
Zr470       O480   2.385       .  S
Zr470       O478   2.390       .  S
Zr470      O1370   2.356       .  S
Zr470      O1369   2.412       .  S
O471      Zr1364   2.434       .  S
O471        H487   0.990       .  S
O472        H486   0.990       .  S
O472        H496   0.990       .  S
Zr473      O1336   2.452   1_554  S
Zr473       O476   2.398       .  S
Zr473       O479   2.389       .  S
Zr473      O1347   2.381   1_554  S
Zr473      O1372   2.411   1_554  S
Zr474      O1350   2.466       .  S
Zr474       O480   2.427       .  S
Zr474      O1369   2.431       .  S
Zr474      O1371   2.378       .  S
O475      Zr1364   2.404       .  S
O475      Zr1368   2.429       .  S
O475        H483   0.965       .  S
O476      Zr1364   2.365       .  S
O477      Zr1368   2.375       .  S
O478      Zr1367   2.413       .  S
O478        H482   0.965       .  S
O479        H484   0.966       .  S
O497       Zr509   2.390       .  S
O497        C499   1.265       .  A
O498       Zr535   2.474       .  S
O498        C499   1.291       .  A
C499        C885   1.466       .  S
O500       Zr512   2.429       .  S
O500        C502   1.289       .  A
O501       Zr536   2.529       .  S
O501        C502   1.301       .  A
O503      Zr1406   2.413       .  S
O503       C1399   1.286       .  A
O504      Zr1429   2.567       .  S
O504       C1399   1.308       .  A
C505       O1397   1.284       .  A
C505       O1398   1.309       .  A
C505       C1145   1.540       .  S
O506       Zr509   2.390       .  S
O506        C508   1.266       .  A
O507       Zr536   2.471       .  S
O507        C508   1.282       .  A
C508        C577   1.496       .  S
Zr509       O510   2.437       .  S
Zr509       O511   2.442       .  S
Zr509       O515   2.382       .  S
Zr509       O516   2.386       .  S
Zr509       O539   2.375       .  S
Zr509       O541   2.380       .  S
O510        H553   0.989       .  S
O511        H552   0.990       .  S
O511        H556   0.990       .  S
Zr512      O1397   2.405       .  S
Zr512       O513   2.435       .  S
Zr512      O1408   2.430       .  S
Zr512       O516   2.337       .  S
Zr512       O515   2.376       .  S
Zr512      O1434   2.363       .  S
Zr512      O1436   2.367       .  S
O513        H554   0.990       .  S
O513        H557   0.990       .  S
O514      Zr1406   2.429   1_554  S
O514        H547   0.990       .  S
O515       Zr535   2.377       .  S
O516       Zr536   2.400       .  S
O516        H543   0.993       .  S
O517       Zr529   2.579       .  S
O517        C519   1.314       .  A
O518       Zr536   2.398       .  S
O518        C519   1.287       .  A
O520       Zr532   2.413       .  S
O520        C522   1.273       .  A
O521      Zr1429   2.468   1_554  S
O521        C522   1.288       .  A
C522        C871   1.500       .  S
O523       Zr532   2.389       .  S
O523        C525   1.275       .  A
O524      Zr1430   2.483   1_554  S
O524        C525   1.299       .  A
C525        C563   1.487       .  S
O526       Zr529   2.596       .  S
O526       C1422   1.319       .  A
O527      Zr1429   2.411       .  S
O527        C528   1.291       .  A
C528       O1420   1.320       .  A
Zr529       O531   2.434       .  S
Zr529      O1424   2.435       .  S
Zr529       O541   2.390       .  S
Zr529       O539   2.389       .  S
Zr529      O1431   2.400       .  S
Zr529      O1432   2.365       .  S
O530      Zr1423   2.435   1_554  S
O530        H550   0.990       .  S
O530        H555   0.990       .  S
O531        H551   0.990       .  S
Zr532       O533   2.416       .  S
Zr532       O534   2.437       .  S
Zr532       O538   2.337       .  S
Zr532       O537   2.371       .  S
Zr532       O542   2.371       .  S
Zr532       O540   2.366       .  S
O533        H549   0.991       .  S
O534        H548   0.990       .  S
O534        H558   0.990       .  S
Zr535      O1398   2.568       .  S
Zr535      O1415   2.455       .  S
Zr535      O1421   2.409       .  S
Zr535       O541   2.432       .  S
Zr535      O1432   2.403       .  S
Zr535      O1434   2.393       .  S
Zr536      O1418   2.482       .  S
Zr536       O539   2.438       .  S
Zr536      O1431   2.421       .  S
Zr536      O1436   2.382       .  S
O537      Zr1423   2.406   1_554  S
O537      Zr1430   2.424   1_554  S
O537        H545   0.966       .  S
O538      Zr1423   2.367   1_554  S
O538      Zr1429   2.406   1_554  S
O540      Zr1406   2.372   1_554  S
O540      Zr1429   2.397   1_554  S
O540        H544   0.965       .  S
O541        H546   0.965       .  S
O542      Zr1406   2.368   1_554  S
O542      Zr1430   2.383   1_554  S
C559        C560   1.389       .  A
C559        C564   1.397       .  A
C559        H566   1.084       .  S
C560        C561   1.416       .  A
C561        C562   1.398       .  A
C561        N568   1.421       .  S
C562        C563   1.397       .  A
C562        H567   1.084       .  S
C563        C564   1.428       .  A
C564        N565   1.427       .  S
N565        O569   1.262       .  A
N565        O570   1.262       .  A
N568        O572   1.262       .  A
N568        O571   1.260       .  A
C573        C574   1.402       .  A
C573        C578   1.410       .  A
C573        H580   1.077       .  S
C574        C575   1.404       .  A
C575        C576   1.405       .  A
C575        N582   1.428       .  S
C576        C577   1.411       .  A
C576        H581   1.082       .  S
C577        C578   1.417       .  A
C578        N579   1.435       .  S
N579        O583   1.263       .  A
N579        O584   1.262       .  A
N582        O586   1.261       .  A
N582        O585   1.262       .  A
C587        C588   1.421       .  A
C587        C592   1.411       .  A
C587        H594   1.083       .  S
C588        C589   1.409       .  A
C589        C590   1.394       .  A
C589        N596   1.429       .  S
C590        C591   1.413       .  A
C590        H595   1.083       .  S
C591        C592   1.403       .  A
C592        N593   1.428       .  S
N593        O597   1.261       .  A
N593        O598   1.262       .  A
N596        O600   1.262       .  A
N596        O599   1.262       .  A
C601        C602   1.385       .  A
C601        C606   1.387       .  A
C601        H608   1.085       .  S
C602        C603   1.421       .  A
C603        C604   1.415       .  A
C603        N610   1.432       .  S
C604        C605   1.406       .  A
C604        H609   1.083       .  S
C605        C606   1.421       .  A
C606        N607   1.416       .  S
N607        O611   1.260       .  A
N607        O612   1.262       .  A
N610        O614   1.262       .  A
N610        O613   1.262       .  A
C615        C616   1.398       .  A
C615        C620   1.397       .  A
C615        H622   1.084       .  S
C616        C617   1.417       .  A
C617        C618   1.405       .  A
C617        N624   1.428       .  S
C618        C619   1.400       .  A
C618        H623   1.084       .  S
C619        C620   1.416       .  A
C620        N621   1.433       .  S
N621        O625   1.262       .  A
N621        O626   1.263       .  A
N624        O628   1.262       .  A
N624        O627   1.262       .  A
C629        C630   1.412       .  A
C629        C634   1.393       .  A
C629        H636   1.083       .  S
C630        C631   1.402       .  A
C631        C632   1.401       .  A
C631        N638   1.430       .  S
C632        C633   1.414       .  A
C632        H637   1.083       .  S
C633        C634   1.402       .  A
C634        N635   1.428       .  S
N635        O639   1.262       .  A
N635        O640   1.262       .  A
N638        O642   1.262       .  A
N638        O641   1.262       .  A
C643        C644   1.397       .  A
C643        C648   1.395       .  A
C643        H650   1.084       .  S
C644        C645   1.402       .  A
C645        C646   1.398       .  A
C645        N652   1.431       .  S
C646        C647   1.406       .  A
C646        H651   1.084       .  S
C647        C648   1.409       .  A
C648        N649   1.426       .  S
N649        O653   1.258       .  A
N649        O654   1.262       .  A
N652        O656   1.262       .  A
N652        O655   1.261       .  A
C657        C658   1.398       .  A
C657        C662   1.402       .  A
C657        H664   1.081       .  S
C658        C659   1.411       .  A
C659        C660   1.404       .  A
C659        N666   1.442       .  S
C660        C661   1.401       .  A
C660        H665   1.083       .  S
C661        C662   1.417       .  A
C662        N663   1.441       .  S
N663        O667   1.263       .  A
N663        O668   1.262       .  A
N666        O670   1.263       .  A
N666        O669   1.263       .  A
C671        C672   1.413       .  A
C671        C676   1.406       .  A
C671        H678   1.083       .  S
C672        C673   1.401       .  A
C673        C674   1.385       .  A
C673        N680   1.431       .  S
C674        C675   1.416       .  A
C674        H679   1.080       .  S
C675        C676   1.405       .  A
C676        N677   1.427       .  S
N677        O681   1.261       .  A
N677        O682   1.262       .  A
N680        O684   1.262       .  A
N680        O683   1.262       .  A
C685        C686   1.415       .  A
C685        C690   1.394       .  A
C685        H692   1.083       .  S
C686        C687   1.411       .  A
C687        C688   1.399       .  A
C687        N694   1.437       .  S
C688        C689   1.411       .  A
C688        H693   1.083       .  S
C689        C690   1.400       .  A
C690        N691   1.429       .  S
N691        O695   1.262       .  A
N691        O696   1.262       .  A
N694        O698   1.262       .  A
N694        O697   1.263       .  A
C699        C700   1.404       .  A
C699        C704   1.406       .  A
C699        H706   1.084       .  S
C700        C701   1.417       .  A
C701        C702   1.410       .  A
C701        N708   1.427       .  S
C702        C703   1.403       .  A
C702        H707   1.084       .  S
C703        C704   1.418       .  A
C704        N705   1.435       .  S
N705        O709   1.262       .  A
N705        O710   1.262       .  A
N708        O712   1.262       .  A
N708        O711   1.260       .  A
C713        C714   1.406       .  A
C713        C718   1.403       .  A
C713        H720   1.084       .  S
C714        C715   1.413       .  A
C715        C716   1.406       .  A
C715        N722   1.429       .  S
C716        C717   1.409       .  A
C716        H721   1.083       .  S
C717        C718   1.416       .  A
C718        N719   1.429       .  S
N719        O723   1.261       .  A
N719        O724   1.262       .  A
N722        O726   1.262       .  A
N722        O725   1.261       .  A
C727        C728   1.395       .  A
C727        C732   1.406       .  A
C727        H734   1.084       .  S
C728        C729   1.432       .  A
C729        C730   1.381       .  A
C729        N736   1.430       .  S
C730        C731   1.385       .  A
C730        H735   1.084       .  S
C731        C732   1.425       .  A
C732        N733   1.432       .  S
N733        O737   1.261       .  A
N733        O738   1.262       .  A
N736        O740   1.256   1_455  A
N736        O739   1.257       .  A
C741        C742   1.421       .  A
C741        C746   1.396       .  A
C741        H748   1.083       .  S
C742        C743   1.406       .  A
C743        C744   1.402       .  A
C743        N750   1.427       .  S
C744        C745   1.413       .  A
C744        H749   1.084       .  S
C745        C746   1.402       .  A
C746        N747   1.430       .  S
N747        O751   1.262       .  A
N747        O752   1.260   1_455  A
N750        O754   1.262       .  A
N750        O753   1.262       .  A
C755        C756   1.406       .  A
C755        C760   1.411       .  A
C755        H762   1.084       .  S
C756        C757   1.407       .  A
C757        C758   1.397       .  A
C757        N764   1.428       .  S
C758        C759   1.408       .  A
C758        H763   1.083       .  S
C759        C760   1.415       .  A
C760        N761   1.428       .  S
N761        O765   1.262       .  A
N761        O766   1.262       .  A
N764        O768   1.260       .  A
N764        O767   1.262       .  A
C769        C770   1.399       .  A
C769        C774   1.402       .  A
C769        H776   1.084       .  S
C770        C771   1.414       .  A
C771        C772   1.403       .  A
C771        N778   1.429       .  S
C772        C773   1.402       .  A
C772        H777   1.084       .  S
C773        C774   1.418       .  A
C774        N775   1.428       .  S
N775        O779   1.262       .  A
N775        O780   1.261       .  A
N778        O782   1.260       .  A
N778        O781   1.262       .  A
C783        C784   1.400       .  A
C783        C788   1.401       .  A
C783        H790   1.078       .  S
C784        C785   1.408       .  A
C785        C786   1.410       .  A
C785        N792   1.427       .  S
C786        C787   1.410       .  A
C786        H791   1.084       .  S
C787        C788   1.416       .  A
C788        N789   1.431       .  S
N789        O793   1.260       .  A
N789        O794   1.262       .  A
N792        O796   1.262       .  A
N792        O795   1.261       .  A
C797        C798   1.413       .  A
C797        C802   1.409       .  A
C797        H804   1.083   1_565  S
C798        C799   1.408       .  A
C799        C800   1.398       .  A
C799        N806   1.429       .  S
C800        C801   1.411       .  A
C800        H805   1.078       .  S
C801        C802   1.411       .  A
C802        N803   1.431       .  S
N803        O807   1.262   1_565  A
N803        O808   1.261       .  A
N806        O810   1.262       .  A
N806        O809   1.262       .  A
C811        C812   1.410       .  A
C811        C816   1.425       .  A
C811        H818   1.083       .  S
C812        C813   1.422       .  A
C813        C814   1.388       .  A
C813        N820   1.420       .  S
C814        C815   1.387       .  A
C814        H819   1.085       .  S
C815        C816   1.427       .  A
C816        N817   1.442       .  S
N817        O821   1.263       .  A
N817        O822   1.263       .  A
N820        O824   1.261       .  A
N820        O823   1.261       .  A
C825        C826   1.388       .  A
C825        C830   1.398       .  A
C825        H832   1.085       .  S
C826        C827   1.423       .  A
C827        C828   1.413       .  A
C827        N834   1.428       .  S
C828        C829   1.401       .  A
C828        H833   1.083       .  S
C829        C830   1.418       .  A
C830        N831   1.417       .  S
N831        O835   1.261       .  A
N831        O836   1.260       .  A
N834        O838   1.262       .  A
N834        O837   1.262       .  A
C839        C840   1.407       .  A
C839        C844   1.396       .  A
C839        H846   1.082       .  S
C840        C841   1.406       .  A
C841        C842   1.403       .  A
C841        N848   1.428       .  S
C842        C843   1.410       .  A
C842        H847   1.083       .  S
C843        C844   1.405       .  A
C844        N845   1.424       .  S
N845        O849   1.262       .  A
N845        O850   1.262       .  A
N848        O852   1.262       .  A
N848        O851   1.261       .  A
C853        C854   1.411       .  A
C853        C858   1.387       .  A
C853        H860   1.078       .  S
C854        C855   1.407       .  A
C855        C856   1.402       .  A
C855        N862   1.427       .  S
C856        C857   1.410       .  A
C856        H861   1.084       .  S
C857        C858   1.403       .  A
C858        N859   1.431       .  S
N859        O863   1.262       .  A
N859        O864   1.262       .  A
N862        O866   1.261       .  A
N862        O865   1.262       .  A
C867        C868   1.417       .  A
C867        C872   1.407       .  A
C867        H874   1.081       .  S
C868        C869   1.404       .  A
C869        C870   1.402       .  A
C869        N876   1.429       .  S
C870        C871   1.415       .  A
C870        H875   1.080       .  S
C871        C872   1.412       .  A
C872        N873   1.434       .  S
N873        O877   1.260       .  A
N873        O878   1.260   1_545  A
N876        O880   1.261       .  A
N876        O879   1.262       .  A
C881        C882   1.407       .  A
C881        C886   1.408       .  A
C881        H888   1.084       .  S
C882        C883   1.415       .  A
C883        C884   1.396       .  A
C883        N890   1.429       .  S
C884        C885   1.396       .  A
C884        H889   1.085       .  S
C885        C886   1.411       .  A
C886        N887   1.430       .  S
N887        O891   1.261   1_545  A
N887        O892   1.262       .  A
N890        O894   1.260       .  A
N890        O893   1.262       .  A
O895       Zr907   2.497       .  S
O895        C897   1.295       .  A
O896       Zr933   2.344       .  S
O896        C897   1.270       .  A
C897       C1776   1.466       .  S
O898       Zr910   2.504       .  S
O898        C900   1.294       .  A
O899       Zr934   2.385       .  S
O899        C900   1.274       .  A
C900       C1678   1.492       .  S
O901       Zr910   2.475       .  S
O901        C903   1.293       .  A
O902       Zr933   2.380   1_565  S
O902        C903   1.278       .  A
C903       C1692   1.480       .  S
O904       Zr907   2.493       .  S
O904        C906   1.298       .  A
O905       Zr934   2.361       .  S
O905        C906   1.275   1_565  A
C906       C1762   1.488       .  S
Zr907       O908   2.434       .  S
Zr907       O909   2.437       .  S
Zr907       O913   2.283   1_545  S
Zr907       O937   2.286       .  S
Zr907       O914   2.358   1_545  S
Zr907       O939   2.374       .  S
O908        H951   0.990       .  S
O909        H950   0.989       .  S
O909        H954   0.990       .  S
Zr910       O911   2.434       .  S
Zr910       O912   2.433       .  S
Zr910       O913   2.290       .  S
Zr910       O940   2.288       .  S
Zr910       O914   2.382       .  S
Zr910       O938   2.397       .  S
O911        H952   0.990       .  S
O911        H955   0.990       .  S
O912        H945   0.990       .  S
O913       Zr933   2.258   1_565  S
O914       Zr934   2.378       .  S
O914        H941   0.964       .  S
O915       Zr927   2.502       .  S
O915        C917   1.298       .  A
O916       Zr934   2.378   1_545  S
O916        C917   1.278       .  A
C917       C1734   1.484       .  S
O918       Zr930   2.510       .  S
O918        C920   1.301       .  A
O919       Zr933   2.380   1_565  S
O919        C920   1.276       .  A
C920       C1723   1.499       .  S
O921       Zr930   2.510       .  S
O921        C923   1.289       .  A
O922       Zr934   2.387       .  S
O922        C923   1.263       .  A
C923       C1706   1.510       .  S
O924       Zr927   2.487       .  S
O924        C926   1.288       .  A
O925       Zr933   2.369       .  S
O925        C926   1.264       .  A
C926       C1748   1.485       .  S
Zr927       O928   2.436       .  S
Zr927       O929   2.435       .  S
Zr927       O936   2.284       .  S
Zr927       O937   2.287       .  S
Zr927       O935   2.355   1_545  S
Zr927       O939   2.391       .  S
O928        H948   0.990       .  S
O928        H953   0.990       .  S
O929        H949   0.990       .  S
Zr930       O931   2.433       .  S
Zr930       O932   2.433       .  S
Zr930       O936   2.275   1_565  S
Zr930       O940   2.301       .  S
Zr930       O935   2.406       .  S
Zr930       O938   2.394       .  S
O931        H947   0.990       .  S
O932        H946   0.990       .  S
O932        H956   0.990       .  S
Zr933       O936   2.264       .  S
Zr933       O938   2.378   1_545  S
Zr933       O939   2.384       .  S
Zr934       O937   2.269   1_565  S
Zr934       O940   2.255       .  S
Zr934       O935   2.392       .  S
O935        H943   0.964       .  S
O938        H942   0.966       .  S
O939        H944   0.966       .  S
O957       Zr969   2.501       .  S
O957        C959   1.297       .  A
O958       Zr995   2.364   1_455  S
O958        C959   1.272       .  A
C959       C1664   1.471       .  S
O960       Zr972   2.537       .  S
O960        C962   1.304       .  A
O961       Zr996   2.323       .  S
O961        C962   1.268       .  A
C962       C1569   1.500       .  S
O963       Zr972   2.471       .  S
O963        C965   1.284       .  A
O964       Zr995   2.385   1_455  S
O964        C965   1.260   1_455  A
C965       C1583   1.479       .  S
O966       Zr969   2.463       .  S
O966        C968   1.289       .  A
O967       Zr996   2.414   1_455  S
O967        C968   1.281       .  A
C968       C1650   1.479       .  S
Zr969       O970   2.433       .  S
Zr969       O971   2.436       .  S
Zr969       O975   2.276       .  S
Zr969       O999   2.293       .  S
Zr969       O976   2.387       .  S
Zr969      O1001   2.370       .  S
O970       H1013   0.990       .  S
O971       H1012   0.990       .  S
O971       H1016   0.990       .  S
Zr972       O973   2.434       .  S
Zr972       O974   2.434       .  S
Zr972       O975   2.303   1_655  S
Zr972      O1002   2.276       .  S
Zr972       O976   2.360   1_655  S
Zr972      O1000   2.418       .  S
O973       H1014   0.990   1_655  S
O973       H1017   0.990       .  S
O974       H1007   0.990       .  S
O975       Zr995   2.252   1_455  S
O976       Zr996   2.366   1_455  S
O976       H1003   0.963       .  S
O977       Zr989   2.535       .  S
O977        C979   1.302       .  A
O978       Zr996   2.321       .  S
O978        C979   1.256   1_655  A
C979       C1622   1.484       .  S
O980       Zr992   2.499       .  S
O980        C982   1.296       .  A
O981       Zr995   2.388       .  S
O981        C982   1.277       .  A
C982       C1608   1.491       .  S
O983       Zr992   2.505       .  S
O983        C985   1.295       .  A
O984       Zr996   2.391       .  S
O984        C985   1.271       .  A
C985       C1594   1.487       .  S
O986       Zr989   2.521       .  S
O986        C988   1.303       .  A
O987       Zr995   2.335   1_455  S
O987        C988   1.271       .  A
C988       C1636   1.497       .  S
Zr989       O990   2.436   1_455  S
Zr989       O991   2.433       .  S
Zr989       O998   2.281   1_455  S
Zr989       O999   2.291       .  S
Zr989       O997   2.370   1_455  S
Zr989      O1001   2.382       .  S
O990       H1010   0.990       .  S
O990       H1015   0.990       .  S
O991       H1011   0.990       .  S
Zr992       O993   2.435       .  S
Zr992       O994   2.435       .  S
Zr992       O998   2.278       .  S
Zr992      O1002   2.287       .  S
Zr992       O997   2.377       .  S
Zr992      O1000   2.385       .  S
O993       H1009   0.990       .  S
O994       H1008   0.990       .  S
O994       H1018   0.990       .  S
Zr995       O998   2.251       .  S
Zr995      O1000   2.388       .  S
Zr995      O1001   2.375   1_655  S
Zr996       O999   2.266   1_655  S
Zr996      O1002   2.249       .  S
Zr996       O997   2.394       .  S
O997       H1005   0.966       .  S
O1000      H1004   0.966       .  S
O1001      H1006   0.966       .  S
O1019     Zr1031   2.477       .  S
O1019      C1021   1.294       .  A
O1020     Zr1057   2.354       .  S
O1020      C1021   1.274       .  A
C1021      C1524   1.482       .  S
O1022     Zr1034   2.491       .  S
O1022      C1024   1.293       .  A
O1023     Zr1058   2.369       .  S
O1023      C1024   1.265       .  A
C1024      C1538   1.478       .  S
O1025     Zr1034   2.486       .  S
O1025      C1027   1.294       .  A
O1026     Zr1057   2.370       .  S
O1026      C1027   1.276       .  A
C1027      C1552   1.464       .  S
O1028     Zr1031   2.458       .  S
O1028      C1030   1.287       .  A
O1029     Zr1058   2.350       .  S
O1029      C1030   1.271       .  A
C1030      C1513   1.451       .  S
Zr1031     O1032   2.435       .  S
Zr1031     O1033   2.436       .  S
Zr1031     O1037   2.275       .  S
Zr1031     O1061   2.287       .  S
Zr1031     O1038   2.379       .  S
Zr1031     O1063   2.357       .  S
O1032      H1075   0.990       .  S
O1033      H1074   0.990       .  S
O1033      H1078   0.990       .  S
Zr1034     O1035   2.434       .  S
Zr1034     O1036   2.435       .  S
Zr1034     O1037   2.289       .  S
Zr1034     O1064   2.279       .  S
Zr1034     O1038   2.381       .  S
Zr1034     O1062   2.367       .  S
O1035      H1076   0.990       .  S
O1035      H1079   0.990       .  S
O1036      H1069   0.990       .  S
O1037     Zr1057   2.259       .  S
O1038     Zr1058   2.376       .  S
O1038      H1065   0.966       .  S
O1039     Zr1051   2.496       .  S
O1039      C1041   1.297       .  A
O1040     Zr1058   2.363       .  S
O1040      C1041   1.273       .  A
C1041      C1482   1.485       .  S
O1042     Zr1054   2.512       .  S
O1042      C1044   1.286       .  A
O1043     Zr1057   2.373       .  S
O1043      C1044   1.259       .  A
C1044      C1468   1.505       .  S
O1045     Zr1054   2.480       .  S
O1045      C1047   1.297       .  A
O1046     Zr1058   2.384       .  S
O1046      C1047   1.276       .  A
C1047      C1454   1.494       .  S
O1048     Zr1051   2.513       .  S
O1048      C1050   1.300       .  A
O1049     Zr1057   2.359       .  S
O1049      C1050   1.272       .  A
C1050      C1499   1.476       .  S
Zr1051     O1052   2.434       .  S
Zr1051     O1053   2.435       .  S
Zr1051     O1060   2.281       .  S
Zr1051     O1061   2.287       .  S
Zr1051     O1059   2.384       .  S
Zr1051     O1063   2.378       .  S
O1052      H1072   0.990       .  S
O1052      H1077   0.990       .  S
O1053      H1073   0.990       .  S
Zr1054     O1055   2.435       .  S
Zr1054     O1056   2.436       .  S
Zr1054     O1060   2.294       .  S
Zr1054     O1064   2.286       .  S
Zr1054     O1059   2.403       .  S
Zr1054     O1062   2.397       .  S
O1055      H1071   0.990       .  S
O1056      H1070   0.990       .  S
O1056      H1080   0.990       .  S
Zr1057     O1060   2.252       .  S
Zr1057     O1062   2.388       .  S
Zr1057     O1063   2.373       .  S
Zr1058     O1061   2.260       .  S
Zr1058     O1064   2.265       .  S
Zr1058     O1059   2.381       .  S
O1059      H1067   0.966       .  S
O1062      H1066   0.965       .  S
O1063      H1068   0.965       .  S
O1081     Zr1093   2.391       .  S
O1081      C1083   1.280       .  A
O1082     Zr1119   2.553       .  S
O1082      C1083   1.306       .  A
O1084     Zr1096   2.389       .  S
O1084      C1086   1.263       .  A
O1085     Zr1120   2.479   1_556  S
O1085      C1086   1.286       .  A
C1086      C1496   1.483       .  S
O1087     Zr1096   2.389       .  S
O1087      C1089   1.276       .  A
O1088      C1089   1.291       .  A
C1089      C1580   1.485       .  S
O1090      C1092   1.285       .  A
O1091     Zr1120   2.550       .  S
O1091      C1092   1.306       .  A
C1092      C1396   1.529   1_554  S
Zr1093     O1095   2.436       .  S
Zr1093     O1123   2.360       .  S
Zr1093     O1125   2.367       .  S
O1094      H1137   0.990       .  S
O1095      H1136   0.990       .  S
O1095      H1140   0.990       .  S
Zr1096     O1097   2.440       .  S
Zr1096     O1098   2.433       .  S
Zr1096     O1100   2.374       .  S
Zr1096     O1099   2.360       .  S
Zr1096     O1124   2.367       .  S
Zr1096     O1126   2.378       .  S
O1097      H1138   0.990       .  S
O1097      H1141   0.989       .  S
O1098      H1131   0.989       .  S
O1100     Zr1120   2.396   1_556  S
O1100      H1127   0.965       .  S
O1101     Zr1113   2.374       .  S
O1101      C1103   1.272       .  A
O1102      C1103   1.292       .  A
C1103      C1485   1.474       .  S
O1104     Zr1116   2.609       .  S
O1105     Zr1119   2.396       .  S
O1105      C1106   1.287       .  A
O1107     Zr1116   2.597       .  S
O1107      C1109   1.319   1_556  A
O1108     Zr1120   2.421       .  S
O1108      C1109   1.292       .  A
C1109      C1289   1.543       .  S
O1110     Zr1113   2.405       .  S
O1110      C1112   1.272       .  A
O1111     Zr1119   2.462       .  S
O1111      C1112   1.289       .  A
C1112      C1566   1.483       .  S
Zr1113     O1114   2.440       .  S
Zr1113     O1115   2.438       .  S
Zr1113     O1121   2.372       .  S
Zr1113     O1122   2.343       .  S
Zr1113     O1125   2.364       .  S
Zr1113     O1123   2.365       .  S
O1114      H1134   0.990       .  S
O1114      H1139   0.990       .  S
O1115      H1135   0.990       .  S
Zr1116     O1118   2.434       .  S
Zr1116     O1126   2.390       .  S
Zr1116     O1124   2.415       .  S
O1117      H1133   0.990       .  S
O1118      H1132   0.990       .  S
O1118      H1142   0.990       .  S
Zr1119     O1122   2.396       .  S
Zr1119     O1125   2.382       .  S
Zr1120     O1126   2.422   1_554  S
O1121      H1129   0.966       .  S
O1124      H1128   0.965       .  S
O1125      H1130   0.965       .  S
O1143     Zr1155   2.412       .  S
O1143      C1145   1.286       .  A
O1144     Zr1181   2.561       .  S
O1144      C1145   1.307       .  A
O1146     Zr1158   2.402       .  S
O1146      C1148   1.271       .  A
O1147     Zr1182   2.462       .  S
O1147      C1148   1.283       .  A
C1148      C1611   1.496       .  S
O1149     Zr1158   2.401       .  S
O1149      C1151   1.273       .  A
O1150      C1151   1.290       .  A
C1151      C1751   1.467       .  S
O1152      C1154   1.288       .  A
O1153     Zr1182   2.500       .  S
O1153      C1154   1.296       .  A
Zr1155     O1157   2.425       .  S
Zr1155     O1185   2.365       .  S
Zr1155     O1187   2.359       .  S
O1156      H1199   0.989       .  S
O1157      H1198   0.989       .  S
O1157      H1202   0.990       .  S
Zr1158     O1159   2.435       .  S
Zr1158     O1160   2.434       .  S
Zr1158     O1162   2.375       .  S
Zr1158     O1161   2.377       .  S
Zr1158     O1186   2.377       .  S
Zr1158     O1188   2.375       .  S
O1159      H1200   0.990       .  S
O1159      H1203   0.989       .  S
O1160      H1193   0.990       .  S
O1162     Zr1182   2.410       .  S
O1162      H1189   0.963       .  S
O1163     Zr1175   2.379       .  S
O1163      C1165   1.269       .  A
O1164      C1165   1.296       .  A
C1165      C1597   1.480       .  S
O1166     Zr1178   2.570       .  S
O1167     Zr1181   2.413       .  S
O1167      C1168   1.292       .  A
C1168      C1298   1.528   1_545  S
O1169     Zr1178   2.570       .  S
O1169      C1171   1.311       .  A
O1170     Zr1182   2.438       .  S
O1170      C1171   1.297       .  A
O1172     Zr1175   2.409       .  S
O1172      C1174   1.274       .  A
O1173     Zr1181   2.448       .  S
O1173      C1174   1.287       .  A
C1174      C1737   1.489       .  S
Zr1175     O1176   2.439       .  S
Zr1175     O1177   2.439       .  S
Zr1175     O1183   2.398       .  S
Zr1175     O1184   2.353       .  S
Zr1175     O1187   2.369       .  S
Zr1175     O1185   2.367       .  S
O1176      H1196   0.990       .  S
O1176      H1201   0.990       .  S
O1177      H1197   0.991       .  S
Zr1178     O1180   2.434       .  S
Zr1178     O1188   2.391       .  S
Zr1178     O1186   2.396       .  S
O1179      H1195   0.990       .  S
O1180      H1194   0.990       .  S
O1180      H1204   0.990       .  S
Zr1181     O1184   2.411       .  S
Zr1181     O1187   2.383       .  S
Zr1182     O1188   2.432       .  S
O1183      H1191   0.966       .  S
O1186      H1190   0.965       .  S
O1187      H1192   0.965       .  S
O1205     Zr1217   2.428       .  S
O1205      C1207   1.288       .  A
O1206     Zr1243   2.526       .  S
O1206      C1207   1.300       .  A
C1207      C1275   1.526       .  S
O1208     Zr1220   2.407       .  S
O1208      C1210   1.269       .  A
O1209     Zr1244   2.464       .  S
O1209      C1210   1.288       .  A
C1210      C1667   1.483       .  S
O1211     Zr1220   2.399       .  S
O1211      C1213   1.267       .  A
O1212      C1213   1.279       .  A
C1213      C1695   1.486       .  S
O1214      C1216   1.285   1_554  A
O1215     Zr1244   2.517       .  S
O1215      C1216   1.298       .  A
Zr1217     O1219   2.437       .  S
Zr1217     O1247   2.353       .  S
Zr1217     O1249   2.355       .  S
O1218      H1261   0.990       .  S
O1219      H1260   0.989       .  S
O1219      H1264   0.989       .  S
Zr1220     O1221   2.439       .  S
Zr1220     O1222   2.438       .  S
Zr1220     O1224   2.381       .  S
Zr1220     O1223   2.370       .  S
Zr1220     O1248   2.383       .  S
Zr1220     O1250   2.369       .  S
O1221      H1262   0.989       .  S
O1221      H1265   0.989       .  S
O1222      H1255   0.990       .  S
O1224     Zr1244   2.403       .  S
O1224      H1251   0.966       .  S
O1225     Zr1237   2.394       .  S
O1225      C1227   1.265       .  A
O1226      C1227   1.286       .  A
C1227      C1653   1.489       .  S
O1228     Zr1240   2.577       .  S
O1229     Zr1243   2.426       .  S
O1229      C1230   1.293       .  A
C1230      C1422   1.531   1_565  S
O1231     Zr1240   2.593       .  S
O1231      C1233   1.317       .  A
O1232     Zr1244   2.433       .  S
O1232      C1233   1.297       .  A
O1234     Zr1237   2.391       .  S
O1234      C1236   1.267       .  A
O1235     Zr1243   2.468       .  S
O1235      C1236   1.283       .  A
C1236      C1681   1.494       .  S
Zr1237     O1238   2.438       .  S
Zr1237     O1239   2.434       .  S
Zr1237     O1245   2.379       .  S
Zr1237     O1246   2.376       .  S
Zr1237     O1249   2.384       .  S
Zr1237     O1247   2.379       .  S
O1238      H1258   0.990       .  S
O1238      H1263   0.990       .  S
O1239      H1259   0.989       .  S
Zr1240     O1242   2.436       .  S
Zr1240     O1250   2.390       .  S
Zr1240     O1248   2.412       .  S
O1241      H1257   0.990       .  S
O1242      H1256   0.990       .  S
O1242      H1266   0.990       .  S
Zr1243     O1246   2.432       .  S
Zr1243     O1249   2.403       .  S
Zr1244     O1250   2.417       .  S
O1245      H1253   0.965       .  S
O1248      H1252   0.966       .  S
O1249      H1254   0.967       .  S
O1267     Zr1279   2.428       .  S
O1267      C1269   1.282       .  A
O1268      C1269   1.298       .  A
C1269      C1720   1.489       .  S
O1270      C1272   1.288       .  A
O1271     Zr1306   2.562       .  S
O1271      C1272   1.308       .  A
C1272      C1340   1.542       .  S
O1273     Zr1282   2.400       .  S
O1273      C1275   1.282       .  A
O1274     Zr1305   2.549       .  S
O1274      C1275   1.306       .  A
O1276     Zr1279   2.418       .  S
O1276      C1278   1.276       .  A
O1277     Zr1306   2.433   1_556  S
O1277      C1278   1.283       .  A
C1278      C1527   1.475       .  S
Zr1279     O1280   2.438       .  S
Zr1279     O1281   2.437       .  S
Zr1279     O1285   2.363       .  S
Zr1279     O1286   2.373       .  S
Zr1279     O1309   2.355       .  S
Zr1279     O1311   2.372       .  S
O1280      H1323   0.990       .  S
O1281      H1322   0.988       .  S
O1281      H1326   0.990       .  S
Zr1282     O1284   2.435       .  S
Zr1282     O1310   2.370       .  S
Zr1282     O1312   2.361       .  S
O1283      H1324   0.990       .  S
O1283      H1327   0.989   1_556  S
O1284      H1317   0.990       .  S
O1286     Zr1306   2.395   1_556  S
O1286      H1313   0.965       .  S
O1287     Zr1299   2.592   1_556  S
O1287      C1289   1.318   1_556  A
O1288     Zr1306   2.430       .  S
O1288      C1289   1.295       .  A
O1290     Zr1302   2.402       .  S
O1290      C1292   1.269       .  A
O1291     Zr1305   2.471       .  S
O1291      C1292   1.291       .  A
C1292      C1709   1.492       .  S
O1293     Zr1302   2.380       .  S
O1293      C1295   1.263       .  A
O1294      C1295   1.296       .  A
C1295      C1510   1.468       .  S
O1296     Zr1299   2.586   1_556  S
O1297     Zr1305   2.395       .  S
O1297      C1298   1.288       .  A
Zr1299     O1301   2.435   1_554  S
Zr1299     O1311   2.400   1_554  S
Zr1299     O1309   2.369   1_554  S
O1300      H1320   0.990       .  S
O1300      H1325   0.990       .  S
O1301      H1321   0.990       .  S
Zr1302     O1303   2.434       .  S
Zr1302     O1304   2.440       .  S
Zr1302     O1308   2.363       .  S
Zr1302     O1307   2.391       .  S
Zr1302     O1312   2.389       .  S
Zr1302     O1310   2.390       .  S
O1303      H1319   0.990       .  S
O1304      H1318   0.988       .  S
O1304      H1328   0.990       .  S
Zr1305     O1308   2.425       .  S
Zr1305     O1310   2.414       .  S
Zr1306     O1309   2.412   1_554  S
O1307      H1315   0.965       .  S
O1310      H1314   0.966       .  S
O1311      H1316   0.964       .  S
O1329     Zr1341   2.400       .  S
O1329      C1331   1.282       .  A
O1330     Zr1367   2.534       .  S
O1330      C1331   1.301       .  A
O1332     Zr1344   2.403       .  S
O1332      C1334   1.269       .  A
O1333     Zr1368   2.437   1_556  S
O1333      C1334   1.279       .  A
C1334      C1555   1.466       .  S
O1335     Zr1344   2.408       .  S
O1335      C1337   1.281       .  A
O1336      C1337   1.292       .  A
C1337      C1639   1.480       .  S
O1338      C1340   1.286       .  A
O1339     Zr1368   2.567       .  S
O1339      C1340   1.310       .  A
Zr1341     O1343   2.437       .  S
Zr1341     O1371   2.367       .  S
Zr1341     O1373   2.368       .  S
O1342      H1385   0.990       .  S
O1343      H1384   0.990       .  S
O1343      H1388   0.990       .  S
Zr1344     O1345   2.438       .  S
Zr1344     O1346   2.434       .  S
Zr1344     O1348   2.383       .  S
Zr1344     O1347   2.363       .  S
Zr1344     O1372   2.375       .  S
Zr1344     O1374   2.358       .  S
O1345      H1386   0.990       .  S
O1345      H1389   0.990       .  S
O1346      H1379   0.990       .  S
O1348     Zr1368   2.406   1_556  S
O1348      H1375   0.966       .  S
O1349     Zr1361   2.403       .  S
O1349      C1351   1.266       .  A
O1350      C1351   1.291       .  A
C1351      C1541   1.467       .  S
O1352     Zr1364   2.606       .  S
O1353     Zr1367   2.386       .  S
O1353      C1354   1.284       .  A
O1355     Zr1364   2.573       .  S
O1355      C1357   1.314       .  A
O1356     Zr1368   2.429       .  S
O1356      C1357   1.296       .  A
C1357      C1413   1.531       .  S
O1358     Zr1361   2.393       .  S
O1358      C1360   1.269       .  A
O1359     Zr1367   2.457       .  S
O1359      C1360   1.292       .  A
C1360      C1625   1.476       .  S
Zr1361     O1362   2.438       .  S
Zr1361     O1363   2.438       .  S
Zr1361     O1369   2.387       .  S
Zr1361     O1370   2.363       .  S
Zr1361     O1373   2.389       .  S
Zr1361     O1371   2.370       .  S
O1362      H1382   0.989       .  S
O1362      H1387   0.990       .  S
O1363      H1383   0.990       .  S
Zr1364     O1366   2.434   1_554  S
Zr1364     O1374   2.380   1_554  S
Zr1364     O1372   2.389   1_554  S
O1365      H1381   0.990       .  S
O1366      H1380   0.990       .  S
O1366      H1390   0.990       .  S
Zr1367     O1370   2.402       .  S
Zr1367     O1373   2.399       .  S
Zr1368     O1374   2.431   1_554  S
O1369      H1377   0.965       .  S
O1372      H1376   0.965       .  S
O1373      H1378   0.966       .  S
O1391     Zr1403   2.383       .  S
O1391      C1393   1.265       .  A
O1392     Zr1429   2.482       .  S
O1392      C1393   1.295       .  A
C1393      C1779   1.464       .  S
O1394     Zr1406   2.423       .  S
O1394      C1396   1.287       .  A
O1395     Zr1430   2.537   1_554  S
O1395      C1396   1.303   1_554  A
O1400     Zr1403   2.401       .  S
O1400      C1402   1.270       .  A
O1401     Zr1430   2.488       .  S
O1401      C1402   1.290       .  A
C1402      C1471   1.501       .  S
Zr1403     O1404   2.437       .  S
Zr1403     O1405   2.441       .  S
Zr1403     O1409   2.379       .  S
Zr1403     O1410   2.384       .  S
Zr1403     O1433   2.367       .  S
Zr1403     O1435   2.393       .  S
O1404      H1447   0.990       .  S
O1405      H1446   0.990       .  S
O1405      H1450   0.990       .  S
Zr1406     O1407   2.436       .  S
Zr1406     O1410   2.356       .  S
Zr1406     O1409   2.368       .  S
O1407      H1448   0.990       .  S
O1407      H1451   0.990       .  S
O1408      H1441   0.990       .  S
O1409     Zr1429   2.387       .  S
O1410     Zr1430   2.401       .  S
O1410      H1437   0.966       .  S
O1411     Zr1423   2.586   1_554  S
O1411      C1413   1.315       .  A
O1412     Zr1430   2.400   1_554  S
O1412      C1413   1.288       .  A
O1414     Zr1426   2.423       .  S
O1414      C1416   1.277       .  A
O1415      C1416   1.287       .  A
C1416      C1765   1.494       .  S
O1417     Zr1426   2.415       .  S
O1417      C1419   1.281       .  A
O1418      C1419   1.299       .  A
C1419      C1457   1.496       .  S
O1420     Zr1423   2.598       .  S
O1421      C1422   1.291       .  A
Zr1423     O1425   2.436       .  S
Zr1423     O1435   2.388       .  S
Zr1423     O1433   2.384       .  S
O1424      H1444   0.990       .  S
O1424      H1449   0.990       .  S
O1425      H1445   0.990       .  S
Zr1426     O1427   2.420       .  S
Zr1426     O1428   2.438       .  S
Zr1426     O1432   2.342       .  S
Zr1426     O1431   2.377       .  S
Zr1426     O1436   2.371       .  S
Zr1426     O1434   2.371       .  S
O1427      H1443   0.990       .  S
O1428      H1442   0.990       .  S
O1428      H1452   0.991       .  S
Zr1429     O1435   2.427       .  S
Zr1430     O1433   2.425       .  S
O1431      H1439   0.965       .  S
O1434      H1438   0.966       .  S
O1435      H1440   0.965       .  S
C1453      C1454   1.394       .  A
C1453      C1458   1.397       .  A
C1453      H1460   1.084       .  S
C1454      C1455   1.423       .  A
C1455      C1456   1.404       .  A
C1455      N1462   1.424       .  S
C1456      C1457   1.399       .  A
C1456      H1461   1.084       .  S
C1457      C1458   1.425       .  A
C1458      N1459   1.426       .  S
N1459      O1463   1.262       .  A
N1459      O1464   1.262       .  A
N1462      O1466   1.260       .  A
N1462      O1465   1.258       .  A
C1467      C1468   1.417       .  A
C1467      C1472   1.401       .  A
C1467      H1474   1.081       .  S
C1468      C1469   1.408       .  A
C1469      C1470   1.411       .  A
C1469      N1476   1.428       .  S
C1470      C1471   1.417       .  A
C1470      H1475   1.083       .  S
C1471      C1472   1.403       .  A
C1472      N1473   1.428       .  S
N1473      O1477   1.261       .  A
N1473      O1478   1.261       .  A
N1476      O1480   1.262       .  A
N1476      O1479   1.262       .  A
C1481      C1482   1.418       .  A
C1481      C1486   1.406       .  A
C1481      H1488   1.083       .  S
C1482      C1483   1.405       .  A
C1483      C1484   1.394       .  A
C1483      N1490   1.428       .  S
C1484      C1485   1.409       .  A
C1484      H1489   1.085       .  S
C1485      C1486   1.399       .  A
C1486      N1487   1.429       .  S
N1487      O1491   1.262       .  A
N1487      O1492   1.262       .  A
N1490      O1494   1.262       .  A
N1490      O1493   1.262       .  A
C1495      C1496   1.402       .  A
C1495      C1500   1.403       .  A
C1495      H1502   1.084       .  S
C1496      C1497   1.420       .  A
C1497      C1498   1.405       .  A
C1497      N1504   1.431       .  S
C1498      C1499   1.401       .  A
C1498      H1503   1.084       .  S
C1499      C1500   1.412       .  A
C1500      N1501   1.429       .  S
N1501      O1505   1.262       .  A
N1501      O1506   1.260       .  A
N1504      O1508   1.259       .  A
N1504      O1507   1.261       .  A
C1509      C1510   1.406       .  A
C1509      C1514   1.401       .  A
C1509      H1516   1.083       .  S
C1510      C1511   1.415       .  A
C1511      C1512   1.398       .  A
C1511      N1518   1.429       .  S
C1512      C1513   1.396       .  A
C1512      H1517   1.084       .  S
C1513      C1514   1.404       .  A
C1514      N1515   1.432       .  S
N1515      O1519   1.261       .  A
N1515      O1520   1.262       .  A
N1518      O1522   1.261       .  A
N1518      O1521   1.262       .  A
C1523      C1524   1.416       .  A
C1523      C1528   1.394       .  A
C1523      H1530   1.083       .  S
C1524      C1525   1.406       .  A
C1525      C1526   1.394       .  A
C1525      N1532   1.429       .  S
C1526      C1527   1.409       .  A
C1526      H1531   1.081       .  S
C1527      C1528   1.403       .  A
C1528      N1529   1.430       .  S
N1529      O1533   1.262       .  A
N1529      O1534   1.261       .  A
N1532      O1536   1.262       .  A
N1532      O1535   1.262       .  A
C1537      C1538   1.403       .  A
C1537      C1542   1.403       .  A
C1537      H1544   1.084       .  S
C1538      C1539   1.418       .  A
C1539      C1540   1.394       .  A
C1539      N1546   1.427       .  S
C1540      C1541   1.394       .  A
C1540      H1545   1.085       .  S
C1541      C1542   1.413       .  A
C1542      N1543   1.428       .  S
N1543      O1547   1.260       .  A
N1543      O1548   1.261       .  A
N1546      O1550   1.262       .  A
N1546      O1549   1.262       .  A
C1551      C1552   1.399       .  A
C1551      C1556   1.406       .  A
C1551      H1558   1.083       .  S
C1552      C1553   1.405       .  A
C1553      C1554   1.396       .  A
C1553      N1560   1.427       .  S
C1554      C1555   1.399       .  A
C1554      H1559   1.084       .  S
C1555      C1556   1.421       .  A
C1556      N1557   1.443       .  S
N1557      O1561   1.263       .  A
N1557      O1562   1.263       .  A
N1560      O1564   1.258       .  A
N1560      O1563   1.261       .  A
C1565      C1566   1.416       .  A
C1565      C1570   1.405       .  A
C1565      H1572   1.083       .  S
C1566      C1567   1.399       .  A
C1567      C1568   1.391       .  A
C1567      N1574   1.432       .  S
C1568      C1569   1.422       .  A
C1568      H1573   1.078       .  S
C1569      C1570   1.405       .  A
C1570      N1571   1.427       .  S
N1571      O1575   1.262       .  A
N1571      O1576   1.262       .  A
N1574      O1578   1.262       .  A
N1574      O1577   1.261   1_655  A
C1579      C1580   1.415       .  A
C1579      C1584   1.395       .  A
C1579      H1586   1.083       .  S
C1580      C1581   1.407       .  A
C1581      C1582   1.401       .  A
C1581      N1588   1.432       .  S
C1582      C1583   1.413       .  A
C1582      H1587   1.083       .  S
C1583      C1584   1.400       .  A
C1584      N1585   1.428       .  S
N1585      O1589   1.262       .  A
N1585      O1590   1.262       .  A
N1588      O1592   1.262   1_655  A
N1588      O1591   1.262       .  A
C1593      C1594   1.405       .  A
C1593      C1598   1.405       .  A
C1593      H1600   1.084       .  S
C1594      C1595   1.418       .  A
C1595      C1596   1.406       .  A
C1595      N1602   1.427       .  S
C1596      C1597   1.400       .  A
C1596      H1601   1.084       .  S
C1597      C1598   1.417       .  A
C1598      N1599   1.434       .  S
N1599      O1603   1.262       .  A
N1599      O1604   1.262       .  A
N1602      O1606   1.262       .  A
N1602      O1605   1.261       .  A
C1607      C1608   1.407       .  A
C1607      C1612   1.406       .  A
C1607      H1614   1.084       .  S
C1608      C1609   1.411       .  A
C1609      C1610   1.405       .  A
C1609      N1616   1.429       .  S
C1610      C1611   1.408       .  A
C1610      H1615   1.083       .  S
C1611      C1612   1.417       .  A
C1612      N1613   1.430       .  S
N1613      O1617   1.261       .  A
N1613      O1618   1.263       .  A
N1616      O1620   1.262       .  A
N1616      O1619   1.261       .  A
C1621      C1622   1.398       .  A
C1621      C1626   1.414       .  A
C1621      H1628   1.083       .  S
C1622      C1623   1.430       .  A
C1623      C1624   1.379       .  A
C1623      N1630   1.429       .  S
C1624      C1625   1.382       .  A
C1624      H1629   1.085       .  S
C1625      C1626   1.428       .  A
C1626      N1627   1.439       .  S
N1627      O1631   1.263       .  A
N1627      O1632   1.263       .  A
N1630      O1634   1.258   1_455  A
N1630      O1633   1.256       .  A
C1635      C1636   1.421       .  A
C1635      C1640   1.395       .  A
C1635      H1642   1.083       .  S
C1636      C1637   1.406       .  A
C1637      C1638   1.402       .  A
C1637      N1644   1.427       .  S
C1638      C1639   1.413       .  A
C1638      H1643   1.084       .  S
C1639      C1640   1.402       .  A
C1640      N1641   1.431       .  S
N1641      O1645   1.262       .  A
N1641      O1646   1.261   1_455  A
N1644      O1648   1.262       .  A
N1644      O1647   1.262       .  A
C1649      C1650   1.403       .  A
C1649      C1654   1.408       .  A
C1649      H1656   1.084       .  S
C1650      C1651   1.408       .  A
C1651      C1652   1.396       .  A
C1651      N1658   1.429       .  S
C1652      C1653   1.407       .  A
C1652      H1657   1.084       .  S
C1653      C1654   1.414       .  A
C1654      N1655   1.427       .  S
N1655      O1659   1.261       .  A
N1655      O1660   1.262       .  A
N1658      O1662   1.261       .  A
N1658      O1661   1.262       .  A
C1663      C1664   1.399       .  A
C1663      C1668   1.401       .  A
C1663      H1670   1.084       .  S
C1664      C1665   1.412       .  A
C1665      C1666   1.402       .  A
C1665      N1672   1.428       .  S
C1666      C1667   1.402       .  A
C1666      H1671   1.084       .  S
C1667      C1668   1.417       .  A
C1668      N1669   1.429       .  S
N1669      O1673   1.262       .  A
N1669      O1674   1.262       .  A
N1672      O1676   1.260       .  A
N1672      O1675   1.262       .  A
C1677      C1678   1.402       .  A
C1677      C1682   1.403       .  A
C1677      H1684   1.079       .  S
C1678      C1679   1.407       .  A
C1679      C1680   1.410       .  A
C1679      N1686   1.426       .  S
C1680      C1681   1.412       .  A
C1680      H1685   1.084       .  S
C1681      C1682   1.417       .  A
C1682      N1683   1.432       .  S
N1683      O1687   1.261       .  A
N1683      O1688   1.262       .  A
N1686      O1690   1.262       .  A
N1686      O1689   1.260       .  A
C1691      C1692   1.409       .  A
C1691      C1696   1.400       .  A
C1691      H1698   1.082       .  S
C1692      C1693   1.408       .  A
C1693      C1694   1.399       .  A
C1693      N1700   1.429       .  S
C1694      C1695   1.411       .  A
C1694      H1699   1.081       .  S
C1695      C1696   1.404       .  A
C1696      N1697   1.424       .  S
N1697      O1701   1.262   1_565  A
N1697      O1702   1.261       .  A
N1700      O1704   1.262       .  A
N1700      O1703   1.262       .  A
C1705      C1706   1.408       .  A
C1705      C1710   1.424       .  A
C1705      H1712   1.083       .  S
C1706      C1707   1.420       .  A
C1707      C1708   1.389       .  A
C1707      N1714   1.418       .  S
C1708      C1709   1.387       .  A
C1708      H1713   1.085       .  S
C1709      C1710   1.427       .  A
C1710      N1711   1.439       .  S
N1711      O1715   1.262       .  A
N1711      O1716   1.263       .  A
N1714      O1718   1.261       .  A
N1714      O1717   1.261       .  A
C1719      C1720   1.392       .  A
C1719      C1724   1.401       .  A
C1719      H1726   1.085       .  S
C1720      C1721   1.421       .  A
C1721      C1722   1.407       .  A
C1721      N1728   1.428       .  S
C1722      C1723   1.399       .  A
C1722      H1727   1.083       .  S
C1723      C1724   1.423       .  A
C1724      N1725   1.421       .  S
N1725      O1729   1.258       .  A
N1725      O1730   1.261   1_565  A
N1728      O1732   1.262       .  A
N1728      O1731   1.262       .  A
C1733      C1734   1.409       .  A
C1733      C1738   1.400       .  A
C1733      H1740   1.083       .  S
C1734      C1735   1.407       .  A
C1735      C1736   1.401       .  A
C1735      N1742   1.427       .  S
C1736      C1737   1.409       .  A
C1736      H1741   1.083       .  S
C1737      C1738   1.406       .  A
C1738      N1739   1.425       .  S
N1739      O1743   1.262       .  A
N1739      O1744   1.262       .  A
N1742      O1746   1.262       .  A
N1742      O1745   1.261       .  A
C1747      C1748   1.410       .  A
C1747      C1752   1.390       .  A
C1747      H1754   1.079       .  S
C1748      C1749   1.410       .  A
C1749      C1750   1.404       .  A
C1749      N1756   1.427       .  S
C1750      C1751   1.408       .  A
C1750      H1755   1.084       .  S
C1751      C1752   1.404       .  A
C1752      N1753   1.431       .  S
N1753      O1757   1.262       .  A
N1753      O1758   1.262       .  A
N1756      O1760   1.261       .  A
N1756      O1759   1.262       .  A
C1761      C1762   1.413       .  A
C1761      C1766   1.403       .  A
C1761      H1768   1.082   1_545  S
C1762      C1763   1.403       .  A
C1763      C1764   1.398       .  A
C1763      N1770   1.430       .  S
C1764      C1765   1.415       .  A
C1764      H1769   1.081       .  S
C1765      C1766   1.414       .  A
C1766      N1767   1.435       .  S
N1767      O1771   1.259       .  A
N1767      O1772   1.261   1_545  A
N1770      O1774   1.261       .  A
N1770      O1773   1.262       .  A
C1775      C1776   1.403       .  A
C1775      C1780   1.410       .  A
C1775      H1782   1.084       .  S
C1776      C1777   1.410       .  A
C1777      C1778   1.393       .  A
C1777      N1784   1.429       .  S
C1778      C1779   1.398       .  A
C1778      H1783   1.085       .  S
C1779      C1780   1.421       .  A
C1780      N1781   1.442       .  S
N1781      O1785   1.263   1_545  A
N1781      O1786   1.262       .  A
N1784      O1788   1.260       .  A
N1784      O1787   1.262       .  A
