geometry optimzed in LAMMPS
_audit_creation_date              2020-11-30 
_audit_creation_method            'lammps2cif' 
_symmetry_space_group_name_H-M    'P1' 
_symmetry_Int_Tables_number       1 
_symmetry_cell_setting            triclinic 
loop_ 
_symmetry_equiv_pos_as_xyz 
  x,y,z 
_cell_length_a                    36.88848878 
_cell_length_b                    36.81089573106384 
_cell_length_c                    40.216626770358545 
_cell_angle_alpha                 89.25578498283073 
_cell_angle_beta                  90.09737739094307 
_cell_angle_gamma                 120.14431527600927 
loop_ 
_atom_site_label 
_atom_site_type_symbol 
_atom_site_fract_x 
_atom_site_fract_y 
_atom_site_fract_z 
_atom_site_charge 
N1          N  0.41761207  0.91539228  0.28771207    -0.06300
N2          N  0.39932690  0.88814702  0.31248344    -0.58400
N3          N  0.40902150  0.94896843  0.21099278    -0.06000
N4          N  0.38281351  0.94280604  0.18632743    -0.60500
N5          N  0.42075552  0.92061560  0.21063374    -0.05600
N6          N  0.40308158  0.89481864  0.18560229    -0.58400
N7          N  0.40540232  0.94342976  0.28768192    -0.05200
N8          N  0.37880194  0.93595596  0.31234724    -0.60900
C9          C  0.37526772  0.90139317  0.32761904     0.95900
C10         C  0.37963349  0.90900305  0.17063294     0.95700
N11         N  0.49653167  0.07820412  0.21753513    -0.06500
N12         N  0.50575000  0.10778716  0.19484263    -0.59000
N13         N  0.45111634  0.04107628  0.29126745    -0.04600
N14         N  0.42743721  0.04516700  0.31375918    -0.60200
N15         N  0.49057603  0.07080039  0.29418108    -0.06500
N16         N  0.49433491  0.09590595  0.31893689    -0.59300
N17         N  0.45695112  0.04852610  0.21519150    -0.04200
N18         N  0.43833039  0.05757116  0.19096081    -0.60300
Mn19       Mn  0.42964606  0.99538181  0.25103077     1.18400
C20         C  0.46933396  0.09456115  0.17846391     0.98000
C21         C  0.45461069  0.07926078  0.33100693     0.98600
N22         N  0.50753602  0.92377928  0.21036849    -0.06500
N23         N  0.50041822  0.89967943  0.18433525    -0.62800
N24         N  0.54513547  0.94628647  0.28768940    -0.05300
N25         N  0.56553680  0.93771981  0.31070535    -0.63500
N26         N  0.50532361  0.91689719  0.28722627    -0.06000
N27         N  0.49786996  0.88769689  0.30997723    -0.63100
N28         N  0.54726813  0.95345090  0.21114204    -0.04900
N29         N  0.56803583  0.94983767  0.18575387    -0.63800
Mn30       Mn  0.46211088  0.91779830  0.24914175     1.10700
C31         C  0.53826136  0.91617273  0.16921904     0.99200
C32         C  0.53561402  0.90111771  0.32446461     0.99300
N33         N  0.57822397  0.07188033  0.29505373    -0.06000
N34         N  0.59453400  0.09543172  0.32147172    -0.61400
N35         N  0.59522922  0.05268428  0.21649564    -0.05400
N36         N  0.62341879  0.06254216  0.19260477    -0.58100
N37         N  0.58358085  0.08106853  0.21818059    -0.06700
N38         N  0.60351107  0.11067707  0.19524282    -0.61000
N39         N  0.59087188  0.04427587  0.29298436    -0.05700
N40         N  0.61605791  0.04853855  0.31792718    -0.58200
Mn41       Mn  0.53799433  0.07684991  0.25651145     1.20200
Mn42       Mn  0.57074550  0.99929359  0.25195059     1.10100
Cl43       Cl  0.50013182  0.99734302  0.25216838    -0.86100
C44         C  0.61786886  0.08047056  0.33551066     0.96200
C45         C  0.62823328  0.09875921  0.17947764     0.96000
N46         N  0.92708501  0.50203042  0.29115624    -0.06300
N47         N  0.90059020  0.49265015  0.31615064    -0.58400
N48         N  0.95642045  0.54545984  0.21459977    -0.06000
N49         N  0.94973996  0.56519780  0.18958984    -0.60500
N50         N  0.92823131  0.50518589  0.21452361    -0.05600
N51         N  0.90210318  0.49659435  0.18956678    -0.58400
N52         N  0.95537095  0.54226111  0.29125730    -0.05200
N53         N  0.94885135  0.56116929  0.31619924    -0.60900
C54         C  0.91470966  0.52982088  0.33147530     0.95900
C55         C  0.91571656  0.53406901  0.17420213     0.95700
N56         N  0.08467635  0.58620146  0.21675472    -0.06500
N57         N  0.11153899  0.60600982  0.19227849    -0.59000
N58         N  0.05325465  0.59357472  0.29321312    -0.04600
N59         N  0.05893809  0.61951701  0.31781549    -0.60200
N60         N  0.08220795  0.58263704  0.29378250    -0.06500
N61         N  0.10807436  0.60089402  0.31883330    -0.59300
N62         N  0.05525257  0.59647426  0.21670322    -0.04200
N63         N  0.06149853  0.62351767  0.19240695    -0.60300
Mn64       Mn  0.00502636  0.57058858  0.25385484     1.18400
C65         C  0.09667728  0.62907912  0.17740307     0.98000
C66         C  0.09324551  0.62372524  0.33366022     0.98600
N67         N  0.93005868  0.42141658  0.21270928    -0.06500
N68         N  0.90490419  0.40523219  0.18708207    -0.62800
N69         N  0.95647108  0.40544901  0.28855511    -0.05300
N70         N  0.94893201  0.37653686  0.31159593    -0.63500
N71         N  0.92765654  0.41646365  0.28920022    -0.06000
N72         N  0.89987456  0.39536469  0.31276717    -0.63100
N73         N  0.95921822  0.41085397  0.21235952    -0.04900
N74         N  0.95439843  0.38695826  0.18659612    -0.63800
Mn75       Mn  0.92689911  0.46062086  0.25206993     1.10700
C76         C  0.92046374  0.38394737  0.17108377     0.99200
C77         C  0.91358271  0.37075907  0.32649471     0.99300
N78         N  0.08253274  0.49586198  0.29210888    -0.06000
N79         N  0.10769689  0.50199590  0.31742795    -0.61400
N80         N  0.05720678  0.46046022  0.21455243    -0.05400
N81         N  0.06514522  0.44104413  0.19076972    -0.58100
N82         N  0.08608853  0.50049979  0.21526478    -0.06700
N83         N  0.11432342  0.50914379  0.19168521    -0.61000
N84         N  0.05397557  0.45576716  0.29039554    -0.05700
N85         N  0.05905391  0.43382365  0.31430243    -0.58200
Mn86       Mn  0.08546652  0.54214280  0.25456163     1.20200
Mn87       Mn  0.00676641  0.43217397  0.25138416     1.10100
Cl88       Cl  0.00613729  0.50145541  0.25299717    -0.86100
C89         C  0.09257977  0.46311375  0.33097946     0.96200
C90         C  0.10071772  0.47177796  0.17663162     0.96000
N91         N  0.50529705  0.42213011  0.28943108    -0.06300
N92         N  0.51669848  0.40705133  0.31472362    -0.58400
N93         N  0.45834556  0.40863613  0.21544426    -0.06000
N94         N  0.43653632  0.38388867  0.19078734    -0.60500
N95         N  0.49825328  0.42042482  0.21266656    -0.05600
N96         N  0.50459985  0.40407241  0.18590167    -0.58400
N97         N  0.46537151  0.41052753  0.29180385    -0.05200
N98         N  0.44860623  0.38706485  0.31871446    -0.60900
C99         C  0.48108931  0.38530153  0.33269109     0.95900
C100        C  0.46594074  0.38146603  0.17262374     0.95700
N101        N  0.42144961  0.49714791  0.21755905    -0.06500
N102        N  0.40407459  0.50528681  0.19202648    -0.59000
N103        N  0.41455008  0.45726508  0.29426513    -0.04600
N104        N  0.38817435  0.43630024  0.31877047    -0.60200
N105        N  0.42504538  0.49708325  0.29429384    -0.06500
N106        N  0.40610535  0.50412304  0.31912497    -0.59300
N107        N  0.41039067  0.45715213  0.21828231    -0.04200
N108        N  0.38528096  0.43715701  0.19332440    -0.60300
Mn109      Mn  0.43600368  0.43212600  0.25513525     1.18400
C110        C  0.38169433  0.46762079  0.17727383     0.98000
C111        C  0.38340925  0.46600114  0.33415401     0.98600
N112        N  0.58350329  0.50567881  0.20864916    -0.06500
N113        N  0.60007474  0.49654717  0.18343946    -0.62800
N114        N  0.60124362  0.54660208  0.28499203    -0.05300
N115        N  0.62868408  0.56622227  0.30887925    -0.63500
N116        N  0.58994936  0.50657256  0.28484820    -0.06000
N117        N  0.60924005  0.49798433  0.30862606    -0.63100
N118        N  0.59560187  0.54595561  0.20835886    -0.04900
N119        N  0.62110011  0.56517884  0.18281515    -0.63800
Mn120      Mn  0.54484308  0.46292023  0.24875850     1.10700
C121        C  0.62326907  0.53368854  0.16749634     0.99200
C122        C  0.63322514  0.53533599  0.32336285     0.99300
N123        N  0.51079364  0.58265725  0.29103528    -0.06000
N124        N  0.50309014  0.59797390  0.31778306    -0.61400
N125        N  0.54622346  0.59538066  0.21263610    -0.05400
N126        N  0.56488925  0.62292425  0.18818628    -0.58100
N127        N  0.50626631  0.58399208  0.21446433    -0.06700
N128        N  0.49691739  0.60350847  0.19113712    -0.61000
N129        N  0.55088123  0.59449071  0.28917738    -0.05700
N130        N  0.57133560  0.61835902  0.31471748    -0.58200
Mn131      Mn  0.46514287  0.54107884  0.25434669     1.20200
Mn132      Mn  0.57482730  0.57207270  0.24867555     1.10100
Cl133      Cl  0.50524936  0.50216884  0.25169212    -0.86100
C134        C  0.54094141  0.62007656  0.33226824     0.96200
C135        C  0.53372005  0.62756316  0.17495828     0.96000
N136        N  0.84956279  0.60226639  0.42741499    -0.06300
N137        N  0.88176960  0.61436006  0.40692675    -0.58400
N138        N  0.74641146  0.56206803  0.42695235    -0.06000
N139        N  0.71432451  0.54606662  0.40648442    -0.60500
N140        N  0.76669795  0.60330090  0.42507023    -0.05600
N141        N  0.74875676  0.61629018  0.40310579    -0.58400
N142        N  0.82835344  0.56109084  0.43007641    -0.05200
N143        N  0.84527667  0.54421236  0.41172571    -0.60900
C144        C  0.87862677  0.57763299  0.39758239     0.95900
C145        C  0.71596569  0.58013501  0.39188637     0.95700
N146        N  0.70285618  0.48010379  0.01967409    -0.06500
N147        N  0.66482084  0.46537123  0.03222467    -0.59000
N148        N  0.79317352  0.49434015  0.48742861    -0.04600
N149        N  0.80627833  0.46868703  0.47780313    -0.60200
N150        N  0.78788575  0.48018893  0.01855355    -0.06500
N151        N  0.81041523  0.46398582  0.03013145    -0.59300
N152        N  0.71108772  0.49676449  0.48462341    -0.04200
N153        N  0.67311798  0.47446692  0.47245371    -0.60300
Mn154      Mn  0.76944405  0.52775274  0.45684886     1.18400
C155        C  0.63917336  0.45253005  0.00547451     0.98000
C156        C  0.82049898  0.44952830  0.00284314     0.98600
N157        N  0.80140892  0.67456695  0.47884809    -0.06500
N158        N  0.78354259  0.69457843  0.46556937    -0.62800
N159        N  0.87858036  0.66290075  0.00855846    -0.05300
N160        N  0.91852452  0.68576618  0.01726776    -0.63500
N161        N  0.88403673  0.67380684  0.48002693    -0.06000
N162        N  0.92196878  0.69383130  0.46700038    -0.63100
N163        N  0.79318697  0.66276795  0.01033097    -0.04900
N164        N  0.77661249  0.68550618  0.02053229    -0.63800
Mn165      Mn  0.82599205  0.63973753  0.45222981     1.10700
C166        C  0.76430798  0.69630400  0.99199844     0.99200
C167        C  0.94720206  0.70852342  0.49356766     0.99300
N168        N  0.82451014  0.55420796  0.07019706    -0.06000
N169        N  0.84218584  0.54024470  0.09135182    -0.61400
N170        N  0.76170916  0.59537017  0.06922508    -0.05400
N171        N  0.74265879  0.61008810  0.08803154    -0.58100
N172        N  0.74143417  0.55398457  0.07063931    -0.06700
N173        N  0.70839480  0.53984541  0.09025146    -0.61000
N174        N  0.84548010  0.59562552  0.06883651    -0.05700
N175        N  0.87791089  0.61044243  0.08930836    -0.58200
Mn176      Mn  0.76378520  0.51613261  0.04539893     1.20200
Mn177      Mn  0.82055991  0.63050052  0.04000351     1.10100
Cl178      Cl  0.78960194  0.57014908  0.99831746    -0.86100
C179        C  0.87556222  0.57543537  0.10300909     0.96200
C180        C  0.70932614  0.57499587  0.10083825     0.96000
N181        N  0.75770996  0.14689265  0.43131759    -0.06300
N182        N  0.73659197  0.11348666  0.41238302    -0.58400
N183        N  0.82260431  0.25024870  0.42436674    -0.06000
N184        N  0.83974275  0.28260939  0.40385325    -0.60500
N185        N  0.84294319  0.22947556  0.42390364    -0.05600
N186        N  0.87484601  0.24767885  0.40265058    -0.58400
N187        N  0.73882454  0.16911288  0.43174925    -0.05200
N188        N  0.70472454  0.15152722  0.41355615    -0.60900
C189        C  0.70336121  0.11675869  0.40173885     0.95900
C190        C  0.87227307  0.28092293  0.39046468     0.95700
N191        N  0.79789521  0.30447195  0.01554543    -0.06500
N192        N  0.81617405  0.34386695  0.02550717    -0.59000
N193        N  0.71139102  0.21117583  0.48450954    -0.04600
N194        N  0.67305992  0.19812447  0.47402384    -0.60200
N195        N  0.71373049  0.22101559  0.01805190    -0.06500
N196        N  0.67523088  0.20658273  0.02911516    -0.59300
N197        N  0.79550554  0.29293280  0.47677826    -0.04200
N198        N  0.80671256  0.32930685  0.46202067    -0.60300
Mn199      Mn  0.76678764  0.23100704  0.45395296     1.18400
C200        C  0.82719321  0.36694293  0.99694651     0.98000
C201        C  0.65217736  0.19594709  0.00093599     0.98600
N202        N  0.88042924  0.19896226  0.48112492    -0.06500
N203        N  0.91771343  0.21464256  0.46705979    -0.62800
N204        N  0.79655519  0.12511901  0.02361037    -0.05300
N205        N  0.77933634  0.08717134  0.03724710    -0.63500
N206        N  0.79603826  0.11696855  0.48914618    -0.06000
N207        N  0.77791539  0.07706138  0.48090037    -0.63100
N208        N  0.88288694  0.20756054  0.01883913    -0.04900
N209        N  0.92251693  0.22544514  0.02837451    -0.63800
Mn210      Mn  0.81978403  0.17214171  0.45563248     1.10700
C211        C  0.94413278  0.23302101  0.99938129     0.99200
C212        C  0.76961944  0.05656713  0.51053747     0.99300
N213        N  0.74726717  0.18851224  0.07636576    -0.06000
N214        N  0.71514266  0.17346077  0.09717851    -0.61400
N215        N  0.85177840  0.24832050  0.07343795    -0.05400
N216        N  0.88457066  0.26751641  0.09330760    -0.58100
N217        N  0.83187749  0.26960120  0.07163985    -0.06700
N218        N  0.85057652  0.30348309  0.08985864    -0.61000
N219        N  0.76616499  0.16626110  0.07817143    -0.05700
N220        N  0.74690501  0.13536866  0.10034592    -0.58200
Mn221      Mn  0.77224966  0.24628634  0.04597956     1.20200
Mn222      Mn  0.82509976  0.18621215  0.04936335     1.10100
Cl223      Cl  0.79763234  0.21364103  0.00299039    -0.86100
C224        C  0.71503111  0.14020054  0.11190940     0.96200
C225        C  0.88344324  0.30204079  0.10311194     0.96000
N226        N  0.24410394  0.84176832  0.43356260    -0.06300
N227        N  0.26273802  0.87235988  0.41102139    -0.58400
N228        N  0.17910188  0.73790878  0.43690462    -0.06000
N229        N  0.16215070  0.70546209  0.41693670    -0.60500
N230        N  0.15876697  0.75882079  0.43543375    -0.05600
N231        N  0.12732335  0.74054312  0.41403338    -0.58400
N232        N  0.26305066  0.81950697  0.43487737    -0.05200
N233        N  0.29453961  0.83427278  0.41358518    -0.60900
C234        C  0.29431603  0.86731988  0.39893594     0.95900
C235        C  0.12976812  0.70707201  0.40284604     0.95700
N236        N  0.20900920  0.70189887  0.01585519    -0.06500
N237        N  0.19598817  0.66287297  0.02607525    -0.59000
N238        N  0.29737883  0.78533971  0.49153588    -0.04600
N239        N  0.33581897  0.79847490  0.48061011    -0.60200
N240        N  0.29332904  0.78517709  0.01633418    -0.06500
N241        N  0.33057636  0.79741994  0.02893351    -0.59300
N242        N  0.21212677  0.70249161  0.49340140    -0.04200
N243        N  0.19757098  0.66354709  0.48349636    -0.60300
Mn244      Mn  0.23829473  0.76090019  0.46366457     1.18400
C245        C  0.18751702  0.64106873  0.99727953     0.98000
C246        C  0.35517268  0.80545260  0.00200790     0.98600
N247        N  0.12612148  0.79608664  0.49304590    -0.06500
N248        N  0.08647611  0.77798231  0.48353265    -0.62800
N249        N  0.20996186  0.88117670  0.01241161    -0.05300
N250        N  0.23211084  0.92123975  0.02108634    -0.63500
N251        N  0.21253536  0.88022782  0.49112711    -0.06000
N252        N  0.23178380  0.91994067  0.48058025    -0.63100
N253        N  0.12329024  0.79702340  0.01710507    -0.04900
N254        N  0.08550035  0.77864516  0.03066316    -0.63800
Mn255      Mn  0.18455241  0.82016918  0.46225581     1.10700
C256        C  0.05919557  0.76439011  0.00452114     0.99200
C257        C  0.24258248  0.94233403  0.50917314     0.99300
N258        N  0.26143178  0.82134658  0.07042954    -0.06000
N259        N  0.29402457  0.83719684  0.09041357    -0.61400
N260        N  0.15818864  0.76205572  0.07309096    -0.05400
N261        N  0.12758179  0.74463735  0.09554048    -0.58100
N262        N  0.17736571  0.74012366  0.07123336    -0.06700
N263        N  0.16076193  0.70799186  0.09202656    -0.61000
N264        N  0.24343581  0.84447226  0.07044880    -0.05700
N265        N  0.26346710  0.87649026  0.09084386    -0.58200
Mn266      Mn  0.23524943  0.76155895  0.04393796     1.20200
Mn267      Mn  0.18326736  0.82236466  0.04400067     1.10100
Cl268      Cl  0.20813371  0.79108414  0.99928324    -0.86100
C269        C  0.29518458  0.87164768  0.10289301     0.96200
C270        C  0.12967789  0.71080730  0.10696943     0.96000
N271        N  0.50012706  0.79332838  0.00850975    -0.06300
N272        N  0.47246111  0.80502403  0.01535034    -0.58400
N273        N  0.49897466  0.70267844  0.49063825    -0.06000
N274        N  0.47368619  0.66307588  0.48285023    -0.60500
N275        N  0.49907641  0.71013012  0.01999975    -0.05600
N276        N  0.47331913  0.67415873  0.03492312    -0.58400
N277        N  0.49917398  0.78526971  0.47962782    -0.05200
N278        N  0.47390173  0.79557636  0.46440850    -0.60900
C279        C  0.45766060  0.80784740  0.98506031     0.95900
C280        C  0.45817578  0.64666234  0.00979083     0.95700
N281        N  0.60921302  0.75149454  0.43345266    -0.06500
N282        N  0.62262184  0.73241412  0.41338213    -0.59000
N283        N  0.56717576  0.81252326  0.42540644    -0.04600
N284        N  0.55071123  0.82783581  0.40436814    -0.60200
N285        N  0.60835589  0.83470881  0.42455441    -0.06500
N286        N  0.62073082  0.86590856  0.40248575    -0.59300
N287        N  0.56804000  0.73061200  0.43499337    -0.04200
N288        N  0.55261330  0.69715195  0.41623065    -0.60300
Mn289      Mn  0.53273704  0.75712259  0.45728197     1.18400
C290        C  0.58683044  0.69831684  0.40308038     0.98000
C291        C  0.58420438  0.86111648  0.39017726     0.98600
N292        N  0.56561068  0.74949181  0.07508672    -0.06500
N293        N  0.54817891  0.71683019  0.09552592    -0.62800
N294        N  0.60951084  0.85289712  0.06840862    -0.05300
N295        N  0.62227387  0.88447973  0.08941269    -0.63500
N296        N  0.56836686  0.83322998  0.06588755    -0.06000
N297        N  0.55252508  0.85075470  0.08488463    -0.63100
N298        N  0.60674984  0.76803042  0.07631914    -0.04900
N299        N  0.61812706  0.74820291  0.09791175    -0.63800
Mn300      Mn  0.53279339  0.77176793  0.04277986     1.10700
C301        C  0.58114298  0.71628590  0.10958090     0.99200
C302        C  0.58628586  0.88289389  0.09926128     0.99300
N303        N  0.67816558  0.87537430  0.48089729    -0.06000
N304        N  0.69982325  0.91276683  0.46658492    -0.61400
N305        N  0.67944041  0.79584721  0.02210633    -0.05400
N306        N  0.69838620  0.77734621  0.03662215    -0.58100
N307        N  0.67765572  0.79191373  0.48977446    -0.06700
N308        N  0.69904580  0.77339999  0.48148620    -0.61000
N309        N  0.68110096  0.88153971  0.01328573    -0.05700
N310        N  0.70054521  0.92153362  0.02178619    -0.58200
Mn311      Mn  0.64478313  0.81411584  0.45640149     1.20200
Mn312      Mn  0.64568336  0.82535471  0.04581713     1.10100
Cl313      Cl  0.59090053  0.79368145  0.99995690    -0.86100
C314        C  0.71307638  0.93935448  0.49244380     0.96200
C315        C  0.71127592  0.76286058  0.01099473     0.96000
N316        N  0.15659298  0.38879709  0.42991267    -0.06300
N317        N  0.12405435  0.37546864  0.40954294    -0.58400
N318        N  0.26074129  0.43190635  0.42977924    -0.06000
N319        N  0.29400967  0.44833191  0.41049712    -0.60500
N320        N  0.24178561  0.39065834  0.43014125    -0.05600
N321        N  0.26231174  0.37819103  0.41055519    -0.58400
N322        N  0.17778577  0.43008871  0.42972986    -0.05200
N323        N  0.16058664  0.44566801  0.40998832    -0.60900
C324        C  0.12712426  0.41171237  0.39752437     0.95900
C325        C  0.29500674  0.41486165  0.39868650     0.95700
N326        N  0.29953588  0.50389582  0.01600339    -0.06500
N327        N  0.33899649  0.53021605  0.02370752    -0.59000
N328        N  0.21192324  0.50208100  0.47954671    -0.04600
N329        N  0.19775398  0.52523210  0.46586771    -0.60200
N330        N  0.21650208  0.50293873  0.02484854    -0.06500
N331        N  0.20513372  0.52736986  0.03956387    -0.59300
N332        N  0.29593127  0.50374467  0.48011449    -0.04200
N333        N  0.33347254  0.52709964  0.46688290    -0.60300
Mn334      Mn  0.23678839  0.46730927  0.45440180     1.18400
C335        C  0.35795040  0.54471630  0.99373256     0.98000
C336        C  0.19244868  0.54248957  0.01434467     0.98600
N337        N  0.20995807  0.32424812  0.49054143    -0.06500
N338        N  0.22777917  0.30250193  0.48103134    -0.62800
N339        N  0.12642592  0.32368177  0.02888415    -0.05300
N340        N  0.08911028  0.30422826  0.04321847    -0.63500
N341        N  0.12426338  0.32210603  0.49061889    -0.06000
N342        N  0.08456213  0.29948787  0.48139967    -0.63100
N343        N  0.20993701  0.32361410  0.02379521    -0.04900
N344        N  0.22895676  0.30383452  0.03526166    -0.63800
Mn345      Mn  0.18219991  0.35460998  0.45933719     1.10700
C346        C  0.23885442  0.28994504  0.00778788     0.99200
C347        C  0.06292169  0.28893742  0.51058476     0.99300
N348        N  0.18921282  0.43725874  0.08021800    -0.06000
N349        N  0.17356183  0.45472134  0.09939200    -0.61400
N350        N  0.24980411  0.39504692  0.07675834    -0.05400
N351        N  0.26900940  0.38269327  0.09802875    -0.58100
N352        N  0.27075122  0.43618135  0.07350839    -0.06700
N353        N  0.30425653  0.45269703  0.09229475    -0.61000
N354        N  0.16681294  0.39607727  0.08224623    -0.05700
N355        N  0.13517231  0.38463693  0.10333053    -0.58200
Mn356      Mn  0.24470432  0.47053902  0.04896035     1.20200
Mn357      Mn  0.18744533  0.35822061  0.05364493     1.10100
Cl358      Cl  0.21092206  0.41264531  0.00660798    -0.86100
C359        C  0.13992160  0.42179290  0.11367444     0.96200
C360        C  0.30309072  0.41916701  0.10724466     0.96000
N361        N  0.51972284  0.22867588  0.03051065    -0.06300
N362        N  0.54124732  0.21380338  0.04576618    -0.58400
N363        N  0.51260344  0.30467709  0.50020188    -0.06000
N364        N  0.53820717  0.34411665  0.49158947    -0.60500
N365        N  0.51573960  0.30977588  0.02432325    -0.05600
N366        N  0.53373610  0.34854207  0.03551956    -0.58400
N367        N  0.51904712  0.22440278  0.50139198    -0.05200
N368        N  0.54681202  0.21340866  0.49347779    -0.60900
C369        C  0.55867484  0.20425340  0.02045332     0.95900
C370        C  0.54988178  0.37294660  0.00794383     0.95700
N371        N  0.41491339  0.24979326  0.43257460    -0.06500
N372        N  0.40264673  0.26866603  0.41097405    -0.59000
N373        N  0.46291877  0.19355687  0.43801358    -0.04600
N374        N  0.48495820  0.18209517  0.41973451    -0.60200
N375        N  0.42256798  0.17007826  0.43204187    -0.06500
N376        N  0.41654654  0.14191490  0.40912488    -0.58400
N377        N  0.45553492  0.27243515  0.43745565    -0.04200
N378        N  0.47190494  0.30708878  0.41914981    -0.60300
Mn379      Mn  0.48834538  0.24923852  0.46885187     1.18400
C380        C  0.43847882  0.30438487  0.40298237     0.98000
C381        C  0.45596212  0.14978090  0.40197463     0.98600
N382        N  0.44043397  0.27076244  0.07298508    -0.06500
N383        N  0.45370970  0.30350791  0.09200097    -0.62800
N384        N  0.40439023  0.16762858  0.07864326    -0.05300
N385        N  0.39087260  0.13422281  0.09843925    -0.63500
N386        N  0.44542818  0.19093530  0.08024883    -0.06000
N387        N  0.46069353  0.17415361  0.10106457    -0.63100
N388        N  0.39926854  0.24877890  0.07248736    -0.04900
N389        N  0.38371192  0.26642573  0.09216715    -0.63800
Mn390      Mn  0.48080792  0.25030881  0.05252511     1.10700
C391        C  0.41847705  0.30092728  0.10381929     0.99200
C392        C  0.42648498  0.13880503  0.11220642     0.99300
N393        N  0.34232206  0.12566584  0.48010330    -0.06000
N394        N  0.32476201  0.08868538  0.46573608    -0.61400
N395        N  0.33530815  0.20783969  0.01164811    -0.05400
N396        N  0.31205072  0.22474001  0.01888571    -0.58100
N397        N  0.33613422  0.20633429  0.47962139    -0.06700
N398        N  0.31718439  0.22488502  0.46543657    -0.61000
N399        N  0.34120903  0.12702460  0.01984360    -0.05700
N400        N  0.31922855  0.08921399  0.03344533    -0.58200
Mn401      Mn  0.37780642  0.18711096  0.45531194     1.20200
Mn402      Mn  0.36860214  0.18736229  0.04628745     1.10100
Cl403      Cl  0.42980956  0.21785931  0.00493799    -0.86100
C404        C  0.30636729  0.06115996  0.49113451     0.96200
C405        C  0.30086848  0.23298367  0.98882934     0.96000
C406        C  0.26212353  0.26670856  0.00993017    -0.16600
C407        C  0.27581017  0.25422200  0.98385442    -0.31800
H408        H  0.26914543  0.26045551  0.03488566     0.12400
H409        H  0.26942038  0.26040540  0.95868735     0.13000
C410        C  0.40047562  0.58059447  0.98885139    -0.16600
C411        C  0.42286047  0.60375928  0.01451459    -0.31800
H412        H  0.41427040  0.58918907  0.46548048     0.12400
H413        H  0.41172745  0.59348895  0.03979765     0.13000
C414        C  0.26550223  0.98848830  0.51222738    -0.16600
C415        C  0.28248736  0.01515463  0.48647587    -0.31800
H416        H  0.27628918  0.00136361  0.96151183     0.12400
H417        H  0.27934928  0.00311341  0.46147725     0.13000
C418        C  0.17999178  0.59813647  0.99382600    -0.16600
C419        C  0.18432702  0.57726073  0.01934826    -0.31800
H420        H  0.17931548  0.58554379  0.54007545     0.12400
H421        H  0.18786844  0.58943775  0.04434277     0.13000
C422        C  0.42033681  0.81192850  0.97956346    -0.16600
C423        C  0.39849518  0.81406797  0.00517003    -0.31800
H424        H  0.40883843  0.80959010  0.46015391     0.12400
H425        H  0.41071284  0.81721604  0.03022803     0.13000
C426        C  0.73694760  0.98524987  0.48845533    -0.16600
C427        C  0.74828468  0.01070505  0.51467648    -0.31800
H428        H  0.74432951  0.99828778  0.46335773     0.12400
H429        H  0.73855162  0.00158170  0.03954697     0.13000
C430        C  0.99015521  0.25423978  0.99577437    -0.16600
C431        C  0.01623949  0.26757566  0.02175141    -0.31800
H432        H  0.00305019  0.25536469  0.46344548     0.12400
H433        H  0.00365676  0.26235342  0.04687790     0.13000
C434        C  0.59080271  0.19280472  0.02533053    -0.16600
C435        C  0.60913376  0.18703038  0.99903165    -0.31800
H436        H  0.60397332  0.19613341  0.05005015     0.12400
H437        H  0.59513243  0.18454658  0.47686717     0.13000
C438        C  0.98601457  0.72233627  0.98331050    -0.16600
C439        C  0.01280050  0.73947432  0.00873161    -0.31800
H440        H  0.99833215  0.72713664  0.95812673     0.12400
H441        H  0.00563404  0.74031292  0.54126969     0.13000
C442        C  0.74329648  0.72197046  0.98920732    -0.16600
C443        C  0.73318729  0.73813135  0.01522055    -0.31800
H444        H  0.74245831  0.73813254  0.46384267     0.12400
H445        H  0.74056176  0.73266806  0.04027908     0.13000
C446        C  0.85853979  0.44578304  0.00176340    -0.16600
C447        C  0.86125439  0.41121873  0.99596509    -0.31800
H448        H  0.88791752  0.47538590  0.00303714     0.12400
H449        H  0.82102464  0.40906906  0.45849148     0.13000
C450        C  0.59862078  0.45129517  0.00607519    -0.16600
C451        C  0.56015090  0.41706377  0.00700912    -0.31800
H452        H  0.59158993  0.41875041  0.47324036     0.12400
H453        H  0.53361919  0.42215555  0.00809449     0.13000
C454        C  0.45825276  0.35721536  0.14230795    -0.16600
C455        C  0.42015235  0.32834932  0.13097421    -0.31800
H456        H  0.48646653  0.36183670  0.12996756     0.12400
H457        H  0.39155542  0.32280085  0.14319854     0.13000
C458        C  0.44124831  0.33338610  0.37642901    -0.16600
C459        C  0.47823667  0.36104976  0.36275836    -0.31800
H460        H  0.41226671  0.32937714  0.36605564     0.12400
H461        H  0.50707391  0.36381428  0.37232331     0.13000
C462        C  0.67999504  0.57468461  0.12602910    -0.16600
C463        C  0.64976798  0.53793514  0.13873269    -0.31800
H464        H  0.68479923  0.60424378  0.13555583     0.12400
H465        H  0.64592038  0.50873320  0.12917590     0.13000
C466        C  0.66064483  0.54041493  0.35162194    -0.16600
C467        C  0.68783309  0.57771337  0.36476838    -0.31800
H468        H  0.65899074  0.51194638  0.36134621     0.12400
H469        H  0.69052272  0.60652829  0.35479748     0.13000
C470        C  0.57697333  0.68550701  0.13538081    -0.16600
C471        C  0.53911904  0.65699154  0.14767482    -0.31800
H472        H  0.60524410  0.68711277  0.14503819     0.12400
H473        H  0.51104259  0.65614193  0.13837819     0.13000
C474        C  0.54686643  0.64357530  0.36293613    -0.16600
C475        C  0.58442035  0.67079409  0.37574793    -0.31800
H476        H  0.51850862  0.64008287  0.37418220     0.12400
H477        H  0.61312167  0.67531403  0.36441327     0.13000
C478        C  0.35662860  0.46132460  0.14745811    -0.16600
C479        C  0.33102720  0.42322099  0.13477429    -0.31800
H480        H  0.35805355  0.48916455  0.13654160     0.12400
H481        H  0.32851494  0.39508264  0.14606956     0.13000
C482        C  0.35455629  0.45801049  0.36204852    -0.16600
C483        C  0.32608242  0.41928290  0.37341701    -0.31800
H484        H  0.35545529  0.48558262  0.37235542     0.12400
H485        H  0.32433283  0.39136714  0.36302862     0.13000
C486        C  0.89403679  0.53852511  0.14486771    -0.16600
C487        C  0.90258931  0.57515206  0.13032309    -0.31800
H488        H  0.86812617  0.50940704  0.13563494     0.12400
H489        H  0.92791575  0.60471021  0.13942769     0.13000
C490        C  0.89362682  0.53546254  0.36002038    -0.16600
C491        C  0.90436216  0.57358928  0.37173584    -0.31800
H492        H  0.86697162  0.50739218  0.37045326     0.12400
H493        H  0.93034280  0.60186653  0.36089588     0.13000
C494        C  0.90053977  0.35888335  0.14156327    -0.16600
C495        C  0.91003448  0.33092225  0.12918144    -0.31800
H496        H  0.87478735  0.36159772  0.13116347     0.12400
H497        H  0.93494133  0.32707025  0.13993705     0.13000
C498        C  0.89090286  0.34060009  0.35346892    -0.16600
C499        C  0.89953525  0.31109092  0.36458160    -0.31800
H500        H  0.86453907  0.34215305  0.36381405     0.12400
H501        H  0.92527917  0.30852270  0.35416464     0.13000
C502        C  0.11359837  0.42667989  0.13882452    -0.16600
C503        C  0.12377235  0.46515293  0.14976617    -0.31800
H504        H  0.08682602  0.39871066  0.14922415     0.12400
H505        H  0.15111664  0.49289485  0.13971166     0.13000
C506        C  0.11212822  0.45451067  0.35950295    -0.16600
C507        C  0.10143121  0.41570688  0.37103127    -0.31800
H508        H  0.13814209  0.48207599  0.37054303     0.12400
H509        H  0.07589908  0.38775282  0.36002431     0.13000
C510        C  0.11703602  0.65660533  0.14841604    -0.16600
C511        C  0.10547053  0.68311216  0.13519348    -0.31800
H512        H  0.14363965  0.65548923  0.13807916     0.12400
H513        H  0.07969552  0.68547843  0.14579598     0.13000
C514        C  0.10415585  0.67862885  0.37556831    -0.16600
C515        C  0.11398077  0.65084183  0.36270256    -0.31800
H516        H  0.07874981  0.68183235  0.36506306     0.12400
H517        H  0.14011522  0.64880741  0.37309748     0.13000
C518        C  0.35225393  0.88763363  0.14208807    -0.16600
C519        C  0.32463747  0.89766937  0.12921270    -0.31800
H520        H  0.35379023  0.86108162  0.13227342     0.12400
H521        H  0.32232797  0.92376484  0.13906091     0.13000
C522        C  0.32230397  0.89157010  0.37071024    -0.16600
C523        C  0.34835927  0.88004718  0.35696336    -0.31800
H524        H  0.32041670  0.91799117  0.36042685     0.12400
H525        H  0.34946447  0.85312166  0.36708689     0.13000
C526        C  0.54505024  0.89749188  0.13923350    -0.16600
C527        C  0.58295580  0.90774316  0.12667784    -0.31800
H528        H  0.51701088  0.87205922  0.12819040     0.12400
H529        H  0.61137684  0.93227487  0.13797145     0.13000
C530        C  0.54247072  0.87741068  0.35132890    -0.16600
C531        C  0.58043855  0.88755855  0.36372366    -0.31800
H532        H  0.51465926  0.84966255  0.36081152     0.12400
H533        H  0.60863231  0.91473821  0.35408909     0.13000
C534        C  0.68528889  0.11394246  0.13870144    -0.16600
C535        C  0.65740027  0.12332541  0.15192212    -0.31800
H536        H  0.68705652  0.08712934  0.14820696     0.12400
H537        H  0.65639874  0.15069522  0.14276400     0.13000
C538        C  0.64438864  0.09978093  0.36476879    -0.16600
C539        C  0.67306009  0.09026336  0.37612430    -0.31800
H540        H  0.64196752  0.12517685  0.37597980     0.12400
H541        H  0.67623566  0.06529962  0.36495158     0.13000
C542        C  0.42813425  0.11022684  0.13756280    -0.16600
C543        C  0.46491453  0.11938989  0.15143276    -0.31800
H544        H  0.39921756  0.08258004  0.14555657     0.12400
H545        H  0.49346280  0.14754132  0.14353201     0.13000
C546        C  0.44090956  0.09713323  0.35783370    -0.16600
C547        C  0.46822886  0.12978564  0.37593077    -0.31800
H548        H  0.40752563  0.08316008  0.36257862     0.12400
H549        H  0.50158075  0.14307439  0.37137737     0.13000
N550        N  0.42392908  0.92045289  0.79057384    -0.06300
N551        N  0.40444658  0.89301462  0.81495064    -0.58400
N552        N  0.41421078  0.95041575  0.71362395    -0.06000
N553        N  0.38870595  0.94429741  0.68863793    -0.60500
N554        N  0.42632933  0.92240963  0.71380789    -0.05600
N555        N  0.40949128  0.89661053  0.68868990    -0.58400
N556        N  0.41135861  0.94813189  0.78945311    -0.05200
N557        N  0.38327900  0.94035867  0.81283236    -0.60900
C558        C  0.37937287  0.90601237  0.82856627     0.95900
C559        C  0.38628359  0.91078631  0.67329481     0.95700
N560        N  0.49781878  0.07835039  0.71488252    -0.06500
N561        N  0.50479589  0.10511494  0.69024284    -0.59000
N562        N  0.45544050  0.04470513  0.79011907    -0.04600
N563        N  0.43175790  0.04725479  0.81335914    -0.60200
N564        N  0.49453208  0.07545562  0.79227088    -0.06500
N565        N  0.49806203  0.09978823  0.81758755    -0.59300
N566        N  0.45859521  0.04766226  0.71441208    -0.04200
N567        N  0.43792804  0.05286908  0.68974989    -0.60300
Mn568      Mn  0.43416761  0.99771828  0.75178502     1.18400
C569        C  0.46723385  0.08872325  0.67486885     0.98000
C570        C  0.45847989  0.08145621  0.83046704     0.98600
N571        N  0.51275563  0.92602423  0.71427284    -0.06500
N572        N  0.50487236  0.90031691  0.68927925    -0.62800
N573        N  0.55194972  0.95400528  0.79057226    -0.05300
N574        N  0.57289226  0.94661123  0.81386546    -0.63500
N575        N  0.51222106  0.92434686  0.79084519    -0.06000
N576        N  0.50525077  0.89628882  0.81437782    -0.63100
N577        N  0.55235286  0.95601814  0.71383461    -0.04900
N578        N  0.57231301  0.95103419  0.68847683    -0.63800
Mn579      Mn  0.46819891  0.92193251  0.75261020     1.10700
C580        C  0.54209193  0.91612184  0.67339180     0.99200
C581        C  0.54319837  0.91057437  0.82854172     0.99300
N582        N  0.58399339  0.08019750  0.79240912    -0.06000
N583        N  0.60127810  0.10617986  0.81740622    -0.61400
N584        N  0.59857975  0.05536815  0.71514066    -0.05400
N585        N  0.62602285  0.06363357  0.69097358    -0.58100
N586        N  0.58637236  0.08342004  0.71531226    -0.06700
N587        N  0.60531392  0.11126773  0.69098835    -0.61000
N588        N  0.59711712  0.05286538  0.79178426    -0.05700
N589        N  0.62360803  0.05978810  0.81636358    -0.58200
Mn590      Mn  0.54156246  0.08111022  0.75388213     1.20200
Mn591      Mn  0.57626167  0.00472668  0.75279362     1.10100
Cl592      Cl  0.50517260  0.00144613  0.75287418    -0.86100
C593        C  0.62574730  0.09305277  0.83215973     0.96200
C594        C  0.62990321  0.09852065  0.67602309     0.96000
N595        N  0.92185195  0.49494222  0.78660475    -0.06300
N596        N  0.89386015  0.48394198  0.81063641    -0.58400
N597        N  0.95549373  0.54198887  0.71222433    -0.06000
N598        N  0.94932487  0.56394542  0.68881961    -0.60500
N599        N  0.92746555  0.50183014  0.71011230    -0.05600
N600        N  0.90173007  0.49556418  0.68520284    -0.58400
N601        N  0.95007397  0.53503864  0.78850374    -0.05200
N602        N  0.94192255  0.55234186  0.81376943    -0.60900
C603        C  0.90684515  0.51999630  0.82730352     0.95900
C604        C  0.91572182  0.53442008  0.67208110     0.95700
N605        N  0.08257126  0.58045825  0.71773549    -0.06500
N606        N  0.10988833  0.60006476  0.69358754    -0.59000
N607        N  0.04799914  0.58593198  0.79298820    -0.04600
N608        N  0.05295886  0.61175078  0.81737561    -0.60200
N609        N  0.07719582  0.57536979  0.79406006    -0.06500
N610        N  0.10247596  0.59360747  0.81935014    -0.59300
N611        N  0.05326952  0.59087373  0.71720699    -0.04200
N612        N  0.05996289  0.61782096  0.69285258    -0.60300
Mn613      Mn  0.00173095  0.56460351  0.75277472     1.18400
C614        C  0.09527093  0.62307303  0.67844032     0.98000
C615        C  0.08692641  0.61601051  0.83367339     0.98600
N616        N  0.93027709  0.41755300  0.70821468    -0.06500
N617        N  0.90629818  0.40169237  0.68193269    -0.62800
N618        N  0.95336629  0.40067246  0.78534800    -0.05300
N619        N  0.94688499  0.37427352  0.81014051    -0.63500
N620        N  0.92412214  0.41112136  0.78457263    -0.06000
N621        N  0.89706459  0.39212986  0.80899315    -0.63100
N622        N  0.95906989  0.40644901  0.70923271    -0.04900
N623        N  0.95511637  0.38254810  0.68363354    -0.63800
Mn624      Mn  0.92450509  0.45555065  0.74723221     1.10700
C625        C  0.92213821  0.38009743  0.66685284     0.99200
C626        C  0.91167824  0.36934854  0.82453868     0.99300
N627        N  0.07902023  0.49040651  0.79271922    -0.06000
N628        N  0.10306558  0.49736365  0.81893213    -0.61400
N629        N  0.05660741  0.45610147  0.71442291    -0.05400
N630        N  0.06412186  0.43801204  0.68939436    -0.58100
N631        N  0.08508854  0.49616873  0.71582159    -0.06700
N632        N  0.11273506  0.50627948  0.69153515    -0.61000
N633        N  0.05091864  0.45021738  0.79086873    -0.05700
N634        N  0.05538253  0.42893455  0.81580820    -0.58200
Mn635      Mn  0.08255190  0.53639282  0.75515343     1.20200
Mn636      Mn  0.00499197  0.42711774  0.74995422     1.10100
Cl637      Cl  0.00351053  0.49596591  0.75125186    -0.86100
C638        C  0.08804403  0.45890544  0.83311222     0.96200
C639        C  0.09915529  0.46967534  0.67534879     0.96000
N640        N  0.49654610  0.41559251  0.78329992    -0.06300
N641        N  0.50754398  0.39789834  0.80686663    -0.58400
N642        N  0.44960543  0.40885063  0.71091394    -0.06000
N643        N  0.42640979  0.38289271  0.68720912    -0.60500
N644        N  0.48930928  0.42007427  0.70701823    -0.05600
N645        N  0.49399528  0.40216667  0.68048880    -0.58400
N646        N  0.45712011  0.40546556  0.78704447    -0.05200
N647        N  0.44031467  0.38024966  0.81316617    -0.60900
C648        C  0.47231045  0.37595117  0.82517887     0.95900
C649        C  0.45469726  0.37925675  0.66837105     0.95700
N650        N  0.41754738  0.50121163  0.71941566    -0.06500
N651        N  0.39979996  0.51143371  0.69529467    -0.59000
N652        N  0.40901020  0.45600849  0.79451672    -0.04600
N653        N  0.38124912  0.43477722  0.81828770    -0.60200
N654        N  0.42145133  0.49628717  0.79599055    -0.06500
N655        N  0.40273672  0.50333423  0.82096778    -0.59300
N656        N  0.40491908  0.46084595  0.71849520    -0.04200
N657        N  0.37853622  0.44278969  0.69383069    -0.60300
Mn658      Mn  0.42901801  0.43159881  0.75298702     1.18400
C659        C  0.37561005  0.47463896  0.67962110     0.98000
C660        C  0.37792454  0.46485316  0.83471730     0.98600
N661        N  0.57834403  0.50498108  0.70569793    -0.06500
N662        N  0.59691139  0.49851979  0.68029335    -0.62800
N663        N  0.59508885  0.53823818  0.78470628    -0.05300
N664        N  0.62127320  0.55468298  0.80980576    -0.63500
N665        N  0.58274478  0.49812574  0.78196871    -0.06000
N666        N  0.60010294  0.48631588  0.80523273    -0.63100
N667        N  0.59181413  0.54538690  0.70850277    -0.04900
N668        N  0.61989981  0.56720617  0.68503459    -0.63800
Mn669      Mn  0.53720631  0.45894030  0.74403904     1.10700
C670        C  0.62252551  0.53742182  0.66750683     0.99200
C671        C  0.62401041  0.52185148  0.82233607     0.99300
N672        N  0.50924011  0.57953630  0.79532106    -0.06000
N673        N  0.50280622  0.59546192  0.82230077    -0.61400
N674        N  0.54499658  0.59635313  0.71702863    -0.05400
N675        N  0.56454600  0.62456312  0.69317842    -0.58100
N676        N  0.50540195  0.58627831  0.71902649    -0.06700
N677        N  0.49720557  0.60750870  0.69647345    -0.61000
N678        N  0.54889686  0.58986568  0.79309082    -0.05700
N679        N  0.57036982  0.61344911  0.81847231    -0.58200
Mn680      Mn  0.46281129  0.54167369  0.75743915     1.20200
Mn681      Mn  0.57136788  0.56867042  0.75085486     1.10100
Cl682      Cl  0.50009852  0.50026269  0.75125295    -0.86100
C683        C  0.54099498  0.61639945  0.83647792     0.96200
C684        C  0.53431359  0.63113772  0.68059641     0.96000
N685        N  0.83731361  0.58574097  0.92544118    -0.06300
N686        N  0.86939693  0.59869655  0.90475985    -0.58400
N687        N  0.73385941  0.54382042  0.92820258    -0.06000
N688        N  0.70140160  0.52764909  0.90800875    -0.60500
N689        N  0.75390937  0.58515402  0.92623328    -0.05600
N690        N  0.73532434  0.59786090  0.90475033    -0.58400
N691        N  0.81674892  0.54444884  0.92792878    -0.05200
N692        N  0.83421913  0.52849417  0.90902369    -0.60900
C693        C  0.86705395  0.56260522  0.89489565     0.95900
C694        C  0.70256436  0.56169438  0.89375276     0.95700
N695        N  0.71002624  0.49734213  0.51723367    -0.06500
N696        N  0.67100271  0.47496423  0.52809195    -0.59000
N697        N  0.78538910  0.47736486  0.98601519    -0.04600
N698        N  0.80588679  0.45893718  0.97502673    -0.60200
N699        N  0.79285082  0.49588226  0.52001902    -0.06500
N700        N  0.80583393  0.47153300  0.53334378    -0.59300
N701        N  0.70104963  0.47770790  0.98710022    -0.04200
N702        N  0.66183409  0.46131577  0.97703663    -0.60300
Mn703      Mn  0.75870450  0.50974362  0.95681764     1.18400
C704        C  0.64847380  0.46138003  0.49972903     0.98000
C705        C  0.81441567  0.45505866  0.50677634     0.98600
N706        N  0.79105899  0.65971141  0.97771574    -0.06500
N707        N  0.77321564  0.68026167  0.96517004    -0.62800
N708        N  0.88546071  0.67578847  0.51273889    -0.05300
N709        N  0.92499654  0.69752040  0.52252521    -0.63500
N710        N  0.87560632  0.66001428  0.97596255    -0.06000
N711        N  0.91310467  0.68058872  0.96192843    -0.63100
N712        N  0.80131038  0.67638846  0.51157138    -0.04900
N713        N  0.78312178  0.69771498  0.52110198    -0.63800
Mn714      Mn  0.81481528  0.62359855  0.95073948     1.10700
C715        C  0.77237842  0.70890289  0.49207989     0.99200
C716        C  0.93969117  0.69663235  0.98780110     0.99300
N717        N  0.82715857  0.56628322  0.57286999    -0.06000
N718        N  0.84340436  0.55022408  0.59337637    -0.61400
N719        N  0.76562522  0.60868261  0.57120019    -0.05400
N720        N  0.74642128  0.62207810  0.59137487    -0.58100
N721        N  0.74506157  0.56734945  0.57096604    -0.06700
N722        N  0.71193839  0.55188422  0.59054811    -0.61000
N723        N  0.84923059  0.60760677  0.57271513    -0.05700
N724        N  0.88116349  0.62040186  0.59359752    -0.58200
Mn725      Mn  0.76836160  0.53102532  0.54577061     1.20200
Mn726      Mn  0.82636682  0.64385031  0.54296110     1.10100
Cl727      Cl  0.79765012  0.58577065  0.49952714    -0.86100
C728        C  0.87712172  0.58402525  0.60612826     0.96200
C729        C  0.71274327  0.58606037  0.60308652     0.96000
N730        N  0.76167803  0.15810695  0.93248302    -0.06300
N731        N  0.74146303  0.12582833  0.91236165    -0.58400
N732        N  0.82887996  0.26175496  0.93035807    -0.06000
N733        N  0.84659295  0.29369077  0.90954760    -0.60500
N734        N  0.84753007  0.23931428  0.92946004    -0.05600
N735        N  0.87879043  0.25593517  0.90762047    -0.58400
N736        N  0.74405722  0.18153747  0.93205553    -0.05200
N737        N  0.71155297  0.16572308  0.91199247    -0.60900
C738        C  0.71002085  0.13089886  0.89998863     0.95900
C739        C  0.87767708  0.28997425  0.89560381     0.95700
N740        N  0.79847490  0.29705131  0.50921624    -0.06500
N741        N  0.81168357  0.33636751  0.51726392    -0.59000
N742        N  0.71403890  0.21981485  0.98545697    -0.04600
N743        N  0.67600757  0.20431798  0.97349075    -0.60200
N744        N  0.71361735  0.21557713  0.51691143    -0.06500
N745        N  0.67661383  0.20578209  0.52927841    -0.59300
N746        N  0.79836360  0.30313809  0.98295653    -0.04200
N747        N  0.81724561  0.34168318  0.97017652    -0.60300
Mn748      Mn  0.77123541  0.24210600  0.95725982     1.18400
C749        C  0.81711275  0.35618197  0.48752863     0.98000
C750        C  0.65166631  0.19452073  0.50212949     0.98600
N751        N  0.88066457  0.20454919  0.98620856    -0.06500
N752        N  0.91834182  0.22023708  0.97296134    -0.62800
N753        N  0.79865323  0.12064964  0.52173806    -0.05300
N754        N  0.78229830  0.08332381  0.53628078    -0.63500
N755        N  0.79497425  0.12265983  0.99090921    -0.06000
N756        N  0.77678306  0.08291846  0.98175930    -0.63100
N757        N  0.88382471  0.20300864  0.51369372    -0.04900
N758        N  0.92380511  0.22166398  0.52229139    -0.63800
Mn759      Mn  0.82154558  0.18017346  0.95912538     1.10700
C760        C  0.94447703  0.22858308  0.49289696     0.99200
C761        C  0.76718935  0.06116146  0.01096225     0.99300
N762        N  0.75043703  0.18555718  0.57394733    -0.06000
N763        N  0.71800082  0.17073072  0.59434807    -0.61400
N764        N  0.85477730  0.24493704  0.56861440    -0.05400
N765        N  0.88737777  0.26400329  0.58868883    -0.58100
N766        N  0.83505579  0.26633104  0.56648015    -0.06700
N767        N  0.85369984  0.30020476  0.58475781    -0.61000
N768        N  0.76899906  0.16300365  0.57592152    -0.05700
N769        N  0.74912043  0.13204660  0.59800057    -0.58200
Mn770      Mn  0.77425993  0.24165325  0.54219244     1.20200
Mn771      Mn  0.82731617  0.18222819  0.54588280     1.10100
Cl772      Cl  0.79711327  0.20665668  0.49949013    -0.86100
C773        C  0.71728162  0.13729717  0.60919689     0.96200
C774        C  0.88640100  0.29865480  0.59831267     0.96000
N775        N  0.23879536  0.84065003  0.92510259    -0.06300
N776        N  0.25823549  0.87207446  0.90335690    -0.58400
N777        N  0.17592825  0.73771910  0.92919123    -0.06000
N778        N  0.15852492  0.70395155  0.91078461    -0.60500
N779        N  0.15413962  0.75706798  0.92804568    -0.05600
N780        N  0.12137755  0.73672962  0.90821289    -0.58400
N781        N  0.25902397  0.81979439  0.92765077    -0.05200
N782        N  0.29195333  0.83592694  0.90797938    -0.60900
C783        C  0.29142897  0.86856533  0.89307558     0.95900
C784        C  0.12453452  0.70341162  0.89788395     0.95700
N785        N  0.21266872  0.70380813  0.52598678    -0.06500
N786        N  0.19839535  0.66605436  0.53908025    -0.59000
N787        N  0.29453946  0.78560915  0.98370510    -0.04600
N788        N  0.33309389  0.79777440  0.97331979    -0.60200
N789        N  0.29696040  0.78605731  0.52413707    -0.06500
N790        N  0.33472228  0.79985222  0.53623885    -0.59300
N791        N  0.20929888  0.70353013  0.98324242    -0.04200
N792        N  0.19600836  0.66626313  0.97049838    -0.60300
Mn793      Mn  0.23524970  0.76178394  0.95552774     1.18400
C794        C  0.18875554  0.64121420  0.51237330     0.98000
C795        C  0.35866951  0.80777358  0.50891917     0.98600
N796        N  0.12075141  0.79426377  0.98443779    -0.06500
N797        N  0.08080368  0.77379099  0.97531269    -0.62800
N798        N  0.21203295  0.87896545  0.52391806    -0.05300
N799        N  0.23040060  0.91703970  0.53620484    -0.63500
N800        N  0.20713071  0.87855531  0.97973791    -0.06000
N801        N  0.22722238  0.91631878  0.96575253    -0.63100
N802        N  0.12799196  0.79712877  0.52578403    -0.04900
N803        N  0.09026289  0.78012264  0.53908209    -0.63800
Mn804      Mn  0.17903394  0.81815782  0.95350915     1.10700
C805        C  0.06467646  0.76839987  0.51263850     0.99200
C806        C  0.24253972  0.94278613  0.99159892     0.99300
N807        N  0.26539108  0.82183516  0.57793925    -0.06000
N808        N  0.29932960  0.83887300  0.59622399    -0.61400
N809        N  0.16153168  0.76118164  0.58080382    -0.05400
N810        N  0.12915582  0.74189298  0.60139889    -0.58100
N811        N  0.18184145  0.74049186  0.57938234    -0.06700
N812        N  0.16417020  0.70691884  0.59851208    -0.61000
N813        N  0.24641599  0.84386360  0.57904400    -0.05700
N814        N  0.26725007  0.87675586  0.59840661    -0.58200
Mn815      Mn  0.23947781  0.76279988  0.55222082     1.20200
Mn816      Mn  0.18639144  0.82093480  0.55305825     1.10100
Cl817      Cl  0.21199053  0.79147095  0.50744780    -0.86100
C818        C  0.30032472  0.87314318  0.60869481     0.96200
C819        C  0.13138989  0.70795941  0.61202106     0.96000
N820        N  0.49900134  0.79048303  0.51186678    -0.06300
N821        N  0.47321564  0.80423414  0.51933040    -0.58400
N822        N  0.49985271  0.70524729  0.98777556    -0.06000
N823        N  0.47405419  0.66565010  0.97996502    -0.60500
N824        N  0.49845578  0.70753090  0.52289312    -0.05600
N825        N  0.47315581  0.67139920  0.53783927    -0.58400
N826        N  0.50148534  0.78859975  0.97629274    -0.05200
N827        N  0.47529882  0.79726175  0.96053243    -0.60900
C828        C  0.45824352  0.80770197  0.48937296     0.95900
C829        C  0.45823272  0.64395440  0.51263787     0.95700
N830        N  0.61256656  0.75387440  0.93279058    -0.06500
N831        N  0.62566642  0.73354993  0.91376190    -0.59000
N832        N  0.57238514  0.81650112  0.92433812    -0.04600
N833        N  0.55696955  0.83363231  0.90414545    -0.60200
N834        N  0.61360609  0.83815430  0.92414005    -0.06500
N835        N  0.62705863  0.87075892  0.90337041    -0.59300
N836        N  0.57135558  0.73361672  0.93394255    -0.04200
N837        N  0.55565461  0.69943563  0.91606561    -0.60300
Mn838      Mn  0.53584968  0.76044806  0.95508469     1.18400
C839        C  0.58962227  0.69939716  0.90377445     0.98000
C840        C  0.59111890  0.86738406  0.89118422     0.98600
N841        N  0.56550344  0.74791024  0.57739886    -0.06500
N842        N  0.54868928  0.71624606  0.59873355    -0.62800
N843        N  0.60857024  0.85119110  0.56997734    -0.05300
N844        N  0.62207180  0.88304636  0.59074138    -0.63500
N845        N  0.56736206  0.83109001  0.56858305    -0.06000
N846        N  0.55211048  0.84859552  0.58826568    -0.63100
N847        N  0.60664381  0.76682683  0.57814619    -0.04900
N848        N  0.61872202  0.74818681  0.60033907    -0.63800
Mn849      Mn  0.53188807  0.76931703  0.54557108     1.10700
C850        C  0.58203942  0.71662360  0.61286525     0.99200
C851        C  0.58642809  0.88120134  0.60175546     0.99300
N852        N  0.68209757  0.87829349  0.98074128    -0.06000
N853        N  0.70224829  0.91600686  0.96656890    -0.61400
N854        N  0.67701390  0.79508839  0.52235722    -0.05400
N855        N  0.69796452  0.77884443  0.53678943    -0.58100
N856        N  0.68058347  0.79292679  0.98952680    -0.06700
N857        N  0.70014486  0.77236233  0.98140971    -0.61000
N858        N  0.67813105  0.87884617  0.51347554    -0.05700
N859        N  0.69972398  0.91869444  0.52192542    -0.58200
Mn860      Mn  0.64875096  0.81653531  0.95601044     1.20200
Mn861      Mn  0.64396782  0.82371718  0.54667446     1.10100
Cl862      Cl  0.58850755  0.79123007  0.50149186    -0.86100
C863        C  0.71372978  0.94267794  0.99240987     0.96200
C864        C  0.71156485  0.76553421  0.51104850     0.96000
N865        N  0.15182970  0.38965177  0.93714880    -0.06300
N866        N  0.12007331  0.37592959  0.91600467    -0.58400
N867        N  0.25491102  0.43290484  0.93162856    -0.06000
N868        N  0.28726084  0.44930938  0.91117269    -0.60500
N869        N  0.23645869  0.39161486  0.93214272    -0.05600
N870        N  0.25605789  0.37918676  0.91155947    -0.58400
N871        N  0.17159915  0.43098953  0.93807040    -0.05200
N872        N  0.15402989  0.44602016  0.91792067    -0.60900
C873        C  0.12176428  0.41162300  0.90441547     0.95900
C874        C  0.28786340  0.41572654  0.89880733     0.95700
N875        N  0.29738305  0.50680515  0.51260395    -0.06500
N876        N  0.33610261  0.53246387  0.52234213    -0.59000
N877        N  0.21124769  0.50265189  0.99254368    -0.04600
N878        N  0.19651290  0.52780801  0.98450539    -0.60200
N879        N  0.21284382  0.50500750  0.51203357    -0.06500
N880        N  0.19926223  0.53036345  0.52129901    -0.59300
N881        N  0.29461803  0.50302261  0.98363891    -0.04200
N882        N  0.33050110  0.52819597  0.96852335    -0.60300
Mn883      Mn  0.23291951  0.46798323  0.96094062     1.18400
C884        C  0.35822096  0.54449930  0.49350409     0.98000
C885        C  0.18956908  0.54233308  0.49218059     0.98600
N886        N  0.20807133  0.32226951  0.99105064    -0.06500
N887        N  0.22608024  0.30130046  0.97974920    -0.62800
N888        N  0.12652070  0.32520284  0.52327112    -0.05300
N889        N  0.08879591  0.30489615  0.53679406    -0.63500
N890        N  0.12292566  0.32177359  0.99624014    -0.06000
N891        N  0.08289231  0.30097356  0.98782921    -0.63100
N892        N  0.21115137  0.32734422  0.52321169    -0.04900
N893        N  0.22948277  0.30769770  0.53644252    -0.63800
Mn894      Mn  0.17905947  0.35462927  0.96326272     1.10700
C895        C  0.23970815  0.29233918  0.50999318     0.99200
C896        C  0.06226597  0.29012096  0.01742997     0.99300
N897        N  0.18219774  0.44060683  0.57133892    -0.06000
N898        N  0.16590602  0.45722223  0.59077575    -0.61400
N899        N  0.24633624  0.40176627  0.57523273    -0.05400
N900        N  0.26497296  0.39078194  0.59810328    -0.58100
N901        N  0.26552288  0.44294551  0.57226245    -0.06700
N902        N  0.29736310  0.46079766  0.59287645    -0.61000
N903        N  0.16197444  0.39943357  0.57462509    -0.05700
N904        N  0.13117748  0.38719070  0.59657526    -0.58200
Mn905      Mn  0.23986446  0.47466128  0.54251845     1.20200
Mn906      Mn  0.18597779  0.36218702  0.54974463     1.10100
Cl907      Cl  0.21110191  0.41444759  0.50153687    -0.86100
C908        C  0.13402710  0.42369176  0.60622323     0.96200
C909        C  0.29686445  0.42799433  0.60866763     0.96000
N910        N  0.51297510  0.22143432  0.53368605    -0.06300
N911        N  0.53662548  0.20874687  0.54861170    -0.58400
N912        N  0.51934178  0.31011517  0.99185930    -0.06000
N913        N  0.54014979  0.34920672  0.98030496    -0.60500
N914        N  0.50681511  0.30119561  0.53250717    -0.05600
N915        N  0.52846885  0.33811129  0.54671938    -0.58400
N916        N  0.52412301  0.22890682  0.99814659    -0.05200
N917        N  0.54859049  0.21375534  0.99046913    -0.60900
C918        C  0.55716005  0.20340933  0.52316010     0.95900
C919        C  0.54747130  0.36465182  0.52080971     0.95700
N920        N  0.41408331  0.24401557  0.92907270    -0.06500
N921        N  0.39955101  0.26015180  0.90681474    -0.59000
N922        N  0.46464092  0.19143236  0.93871393    -0.04600
N923        N  0.48684633  0.18000941  0.92074552    -0.60200
N924        N  0.42413448  0.16599757  0.93451900    -0.06500
N925        N  0.41834047  0.13680673  0.91263203    -0.58400
N926        N  0.45489195  0.26848486  0.93243246    -0.04200
N927        N  0.46896581  0.30141495  0.91230894    -0.60300
Mn928      Mn  0.49151394  0.25043697  0.96475874     1.18400
C929        C  0.43410509  0.29590862  0.89665359     0.98000
C930        C  0.45804089  0.14598989  0.90470611     0.98600
N931        N  0.42970713  0.25782750  0.57811081    -0.06500
N932        N  0.44218245  0.29070182  0.59689082    -0.62800
N933        N  0.39453577  0.15458683  0.57662014    -0.05300
N934        N  0.38149837  0.12024302  0.59540363    -0.63500
N935        N  0.43538051  0.17863701  0.57926652    -0.06000
N936        N  0.45100623  0.16170605  0.59924203    -0.63100
N937        N  0.38864395  0.23627119  0.57592994    -0.04900
N938        N  0.37227781  0.25465260  0.59401377    -0.63800
Mn939      Mn  0.47144675  0.23987399  0.55637918     1.10700
C940        C  0.40658034  0.28894682  0.60669277     0.99200
C941        C  0.41751617  0.12536537  0.60914810     0.99300
N942        N  0.34499930  0.12447459  0.98747294    -0.06000
N943        N  0.32497390  0.08441711  0.97855547    -0.61400
N944        N  0.32984749  0.20329594  0.51206182    -0.05400
N945        N  0.30661231  0.21986915  0.52044570    -0.58100
N946        N  0.33829600  0.20565694  0.97915494    -0.06700
N947        N  0.31727246  0.22135889  0.96378411    -0.61000
N948        N  0.33522954  0.12145441  0.51245352    -0.05700
N949        N  0.31261465  0.08110187  0.52059251    -0.58200
Mn950      Mn  0.37908211  0.18366090  0.95662906     1.20200
Mn951      Mn  0.36004759  0.17768944  0.54518440     1.10100
Cl952      Cl  0.42419299  0.21320081  0.50638357    -0.86100
C953        C  0.30915127  0.06281144  0.00766494     0.96200
C954        C  0.29881315  0.23306423  0.49107831     0.96000
C955        C  0.26172059  0.26808951  0.51329619    -0.16600
C956        C  0.27522945  0.25571739  0.48711002    -0.31800
H957        H  0.26780309  0.26107410  0.53831794     0.12400
H958        H  0.26996014  0.26339387  0.46205703     0.13000
C959        C  0.40163837  0.57878878  0.49040524    -0.16600
C960        C  0.42243557  0.60141163  0.51678361    -0.31800
H961        H  0.41091462  0.59140961  0.96352848     0.12400
H962        H  0.40946263  0.59135021  0.54165881     0.13000
C963        C  0.26897205  0.98920852  0.98685736    -0.16600
C964        C  0.28349044  0.01630977  0.01215226    -0.31800
H965        H  0.26937944  0.00087964  0.53717726     0.12400
H966        H  0.27555115  0.00412724  0.03745851     0.13000
C967        C  0.18001269  0.59784718  0.51522571    -0.16600
C968        C  0.18111396  0.57706363  0.48862830    -0.31800
H969        H  0.17731209  0.58635155  0.96877376     0.12400
H970        H  0.18210541  0.58941222  0.46374785     0.13000
C971        C  0.42224057  0.81381225  0.48485604    -0.16600
C972        C  0.40204585  0.81700225  0.51113554    -0.31800
H973        H  0.40798241  0.80798445  0.95449973     0.12400
H974        H  0.41521406  0.82046069  0.53586958     0.13000
C975        C  0.73576382  0.98905087  0.98839970    -0.16600
C976        C  0.74596001  0.01481148  0.01451033    -0.31800
H977        H  0.74335517  0.00217920  0.96334058     0.12400
H978        H  0.74109419  0.99768840  0.53978613     0.13000
C979        C  0.99054566  0.25043650  0.48858314    -0.16600
C980        C  0.01680651  0.26497429  0.51442198    -0.31800
H981        H  0.00288723  0.25944499  0.97069365     0.12400
H982        H  0.00415551  0.26001794  0.53951500     0.13000
C983        C  0.59178961  0.19514886  0.52767781    -0.16600
C984        C  0.60948785  0.18868650  0.50119175    -0.31800
H985        H  0.60556175  0.19901595  0.55220177     0.12400
H986        H  0.59582752  0.18389290  0.97437420     0.13000
C987        C  0.99318346  0.73236493  0.49013266    -0.16600
C988        C  0.01870489  0.74617441  0.51627914    -0.31800
H989        H  0.00631779  0.73805711  0.46516934     0.12400
H990        H  0.00042818  0.73457675  0.03390367     0.13000
C991        C  0.74939954  0.73191933  0.48884381    -0.16600
C992        C  0.73615534  0.74419966  0.51514153    -0.31800
H993        H  0.73552636  0.72743590  0.96427669     0.12400
H994        H  0.74298360  0.73806240  0.54019722     0.13000
C995        C  0.82319720  0.42043575  0.50986792    -0.16600
C996        C  0.82291215  0.39851129  0.48345619    -0.31800
H997        H  0.82443709  0.40946265  0.53482858     0.12400
H998        H  0.89254768  0.41582482  0.99291987     0.13000
C999        C  0.60422282  0.42934193  0.49794150    -0.16600
C1000       C  0.58268981  0.40741235  0.52477541    -0.31800
H1001       H  0.60042813  0.48166757  0.00615706     0.12400
H1002       H  0.59512306  0.41756303  0.54957700     0.13000
C1003       C  0.44545867  0.35191423  0.63950373    -0.16600
C1004       C  0.40753735  0.31930067  0.63116079    -0.31800
H1005       H  0.47324686  0.35702795  0.62614502     0.12400
H1006       H  0.37914811  0.31321913  0.64403669     0.13000
C1007       C  0.43429125  0.32306944  0.86938316    -0.16600
C1008       C  0.47037196  0.35099275  0.85458497    -0.31800
H1009       H  0.40456223  0.31822370  0.86003336     0.12400
H1010       H  0.49979585  0.35428629  0.86320960     0.13000
C1011       C  0.68244674  0.58314028  0.62886576    -0.16600
C1012       C  0.65179469  0.54503696  0.63965404    -0.31800
H1013       H  0.68628519  0.61164494  0.63985377     0.12400
H1014       H  0.64885423  0.51697172  0.62848048     0.13000
C1015       C  0.64955643  0.52380109  0.85111182    -0.16600
C1016       C  0.67494333  0.55990811  0.86658692    -0.31800
H1017       H  0.64821299  0.49485168  0.85913543     0.12400
H1018       H  0.67716151  0.58908609  0.85807736     0.13000
C1019       C  0.57818769  0.68721470  0.63974657    -0.16600
C1020       C  0.54042422  0.66059327  0.65325118    -0.31800
H1021       H  0.60627821  0.68799048  0.64889943     0.12400
H1022       H  0.51266601  0.66076093  0.64440835     0.13000
C1023       C  0.54846772  0.64127505  0.86660676    -0.16600
C1024       C  0.58655578  0.67002430  0.87771655    -0.31800
H1025       H  0.52054234  0.63798773  0.87852542     0.12400
H1026       H  0.61486631  0.67436904  0.86576565     0.13000
C1027       C  0.34956033  0.47004153  0.65048037    -0.16600
C1028       C  0.32440615  0.43243282  0.63672693    -0.31800
H1029       H  0.35053496  0.49811552  0.64058472     0.12400
H1030       H  0.32269613  0.40420021  0.64705002     0.13000
C1031       C  0.34848741  0.45755350  0.86225606    -0.16600
C1032       C  0.31852160  0.41933970  0.87325161    -0.31800
H1033       H  0.35059145  0.48552558  0.87289556     0.12400
H1034       H  0.31568395  0.39100007  0.86275152     0.13000
C1035       C  0.89438400  0.54227911  0.64413482    -0.16600
C1036       C  0.90350452  0.58055624  0.63253609    -0.31800
H1037       H  0.86842296  0.51440539  0.63338198     0.12400
H1038       H  0.92903895  0.60887646  0.64311429     0.13000
C1039       C  0.88402589  0.52331328  0.85573567    -0.16600
C1040       C  0.89378605  0.56035221  0.86899025    -0.31800
H1041       H  0.85705098  0.49449674  0.86484565     0.12400
H1042       H  0.91999869  0.58939839  0.85936941     0.13000
C1043       C  0.90316382  0.35533678  0.63694224    -0.16600
C1044       C  0.91250194  0.32712128  0.62487226    -0.31800
H1045       H  0.87804564  0.35858371  0.62585304     0.12400
H1046       H  0.93678488  0.32271889  0.63621376     0.13000
C1047       C  0.89132225  0.34313694  0.85375222    -0.16600
C1048       C  0.90249703  0.31673861  0.86749968    -0.31800
H1049       H  0.86494784  0.34502946  0.86365473     0.12400
H1050       H  0.92800203  0.31359701  0.85728319     0.13000
C1051       C  0.10939192  0.42731483  0.63337898    -0.16600
C1052       C  0.12069361  0.46499106  0.64647098    -0.31800
H1053       H  0.08329571  0.39879770  0.64381084     0.12400
H1054       H  0.14758765  0.49326957  0.63656121     0.13000
C1055       C  0.10687327  0.45202896  0.86323922    -0.16600
C1056       C  0.09681184  0.41416502  0.87638309    -0.31800
H1057       H  0.13203235  0.48028677  0.87424509     0.12400
H1058       H  0.07232479  0.38547684  0.86540040     0.13000
C1059       C  0.11633642  0.65096907  0.65028544    -0.16600
C1060       C  0.10541523  0.67829701  0.63819893    -0.31800
H1061       H  0.14315492  0.65003306  0.64020004     0.12400
H1062       H  0.07933952  0.68025898  0.64866144     0.13000
C1063       C  0.09786520  0.67276939  0.87257307    -0.16600
C1064       C  0.10740434  0.64399203  0.86186548    -0.31800
H1065       H  0.07240744  0.67535079  0.86142421     0.12400
H1066       H  0.13347432  0.64237157  0.87288023     0.13000
C1067       C  0.35920695  0.88978208  0.64501608    -0.16600
C1068       C  0.33098900  0.89973366  0.63360455    -0.31800
H1069       H  0.36079814  0.86344998  0.63477789     0.12400
H1070       H  0.32866400  0.92552660  0.64410744     0.13000
C1071       C  0.32163088  0.89409670  0.86674561    -0.16600
C1072       C  0.35002972  0.88393135  0.85607377    -0.31800
H1073       H  0.31973098  0.92002675  0.85542564     0.12400
H1074       H  0.35112253  0.85743435  0.86715385     0.13000
C1075       C  0.54741625  0.89598604  0.64368985    -0.16600
C1076       C  0.58445033  0.90667692  0.62927953    -0.31800
H1077       H  0.51896839  0.86943298  0.63419994     0.12400
H1078       H  0.61336442  0.93235490  0.63898507     0.13000
C1079       C  0.55030833  0.88724852  0.85526075    -0.16600
C1080       C  0.58830394  0.89559839  0.86605939    -0.31800
H1081       H  0.52226064  0.86035232  0.86543664     0.12400
H1082       H  0.61676238  0.92189513  0.85582311     0.13000
C1083       C  0.68687123  0.11152489  0.63578337    -0.16600
C1084       C  0.65885389  0.12149209  0.64795619    -0.31800
H1085       H  0.68845443  0.08498593  0.64618856     0.12400
H1086       H  0.65795085  0.14850620  0.63778064     0.13000
C1087       C  0.65298029  0.11472098  0.86069211    -0.16600
C1088       C  0.68061763  0.10479567  0.87370911    -0.31800
H1089       H  0.65123541  0.14119457  0.87042431     0.12400
H1090       H  0.68296509  0.07865626  0.86400785     0.13000
C1091       C  0.42123925  0.09797422  0.63439033    -0.16600
C1092       C  0.45955715  0.10949896  0.64669551    -0.31800
H1093       H  0.39330417  0.07051890  0.64403911     0.12400
H1094       H  0.48710150  0.13731294  0.63695982     0.13000
C1095       C  0.44412315  0.09701350  0.85833491    -0.16600
C1096       C  0.47092093  0.12704192  0.87843826    -0.31800
H1097       H  0.41061376  0.08341814  0.86220299     0.12400
H1098       H  0.50437155  0.13999711  0.87463331     0.13000
loop_ 
_geom_bond_atom_site_label_1 
_geom_bond_atom_site_label_2 
_geom_bond_distance 
_geom_bond_site_symmetry_2 
_ccdc_geom_bond_type 
N1            N2   1.323       .  A
N1            N7   1.317       .  A
N1          Mn30   2.229       .  S
N2            C9   1.357       .  A
N3            N5   1.316       .  A
N3            N4   1.324       .  A
N3          Mn19   2.203       .  S
N4           C10   1.354       .  A
N5            N6   1.319       .  A
N5          Mn30   2.210       .  S
N6           C10   1.352       .  A
N7            N8   1.322       .  A
N7          Mn19   2.201       .  S
N8            C9   1.351       .  A
C9          C523   1.481       .  S
C10         C518   1.476       .  S
N11          N17   1.317       .  A
N11          N12   1.318       .  A
N11         Mn41   2.206       .  S
N12          C20   1.351       .  A
N13          N14   1.320       .  A
N13          N15   1.316       .  A
N13         Mn19   2.192   1_545  S
N14          C21   1.348       .  A
N15          N16   1.326       .  A
N15         Mn41   2.239       .  S
N16          C21   1.361       .  A
N17          N18   1.323       .  A
N17         Mn19   2.207   1_545  S
N18          C20   1.355       .  A
Mn19        Cl43   2.565       .  S
C20         C543   1.472       .  S
C21         C546   1.485       .  S
N22          N23   1.320       .  A
N22          N28   1.317       .  A
N22         Mn30   2.217       .  S
N23          C31   1.352       .  A
N24          N26   1.316       .  A
N24          N25   1.323       .  A
N24         Mn42   2.201       .  S
N25          C32   1.352       .  A
N26          N27   1.322       .  A
N26         Mn30   2.221       .  S
N27          C32   1.355       .  A
N28          N29   1.325       .  A
N28         Mn42   2.211       .  S
N29          C31   1.355       .  A
Mn30        Cl43   2.538       .  S
C31         C526   1.478       .  S
C32         C530   1.480       .  S
N33          N34   1.319       .  A
N33          N39   1.317       .  A
N33         Mn41   2.213       .  S
N34          C44   1.353       .  A
N35          N36   1.323       .  A
N35          N37   1.317       .  A
N35         Mn42   2.205   1_545  S
N36          C45   1.353       .  A
N37          N38   1.323       .  A
N37         Mn41   2.229       .  S
N38          C45   1.355       .  A
N39          N40   1.322       .  A
N39         Mn42   2.202   1_545  S
N40          C44   1.352       .  A
Mn41        Cl43   2.540   1_545  S
Mn42        Cl43   2.570       .  S
C44         C538   1.472       .  S
C45         C535   1.485       .  S
N46          N47   1.319       .  A
N46          N52   1.315       .  A
N46         Mn75   2.201       .  S
N47          C54   1.352       .  A
N48          N50   1.316       .  A
N48          N49   1.327       .  A
N48         Mn64   2.219   1_655  S
N49          C55   1.357       .  A
N50          N51   1.317       .  A
N50         Mn75   2.197       .  S
N51          C55   1.349       .  A
N52          N53   1.317       .  A
N52         Mn64   2.181   1_655  S
N53          C54   1.349       .  A
C54         C490   1.462       .  S
C55         C486   1.477       .  S
N56          N62   1.317       .  A
N56          N57   1.320       .  A
N56         Mn86   2.220       .  S
N57          C65   1.354       .  A
N58          N59   1.326       .  A
N58          N60   1.317       .  A
N58         Mn64   2.214       .  S
N59          C66   1.354       .  A
N60          N61   1.322       .  A
N60         Mn86   2.228       .  S
N61          C66   1.355       .  A
N62          N63   1.321       .  A
N62         Mn64   2.185       .  S
N63          C65   1.350       .  A
Mn64        Cl88   2.566       .  S
C65         C510   1.469       .  S
C66         C515   1.485       .  S
N67          N68   1.317       .  A
N67          N73   1.315       .  A
N67         Mn75   2.198       .  S
N68          C76   1.350       .  A
N69          N71   1.315       .  A
N69          N70   1.322       .  A
N69         Mn87   2.187   1_655  S
N70          C77   1.351       .  A
N71          N72   1.318       .  A
N71         Mn75   2.203       .  S
N72          C77   1.352       .  A
N73          N74   1.321       .  A
N73         Mn87   2.190   1_655  S
N74          C76   1.352       .  A
Mn75        Cl88   2.528   1_655  S
C76         C494   1.465       .  S
C77         C498   1.466       .  S
N78          N79   1.320       .  A
N78          N84   1.317       .  A
N78         Mn86   2.223       .  S
N79          C89   1.355       .  A
N80          N81   1.319       .  A
N80          N82   1.316       .  A
N80         Mn87   2.183       .  S
N81          C90   1.349       .  A
N82          N83   1.322       .  A
N82         Mn86   2.224       .  S
N83          C90   1.356       .  A
N84          N85   1.320       .  A
N84         Mn87   2.181       .  S
N85          C89   1.349       .  A
Mn86        Cl88   2.532       .  S
Mn87        Cl88   2.564       .  S
C89         C506   1.467       .  S
C90         C503   1.473       .  S
N91          N92   1.318       .  A
N91          N97   1.315       .  A
N91        Mn120   2.191       .  S
N92          C99   1.349       .  A
N93          N95   1.314       .  A
N93          N94   1.321       .  A
N93        Mn109   2.175       .  S
N94         C100   1.349       .  A
N95          N96   1.317       .  A
N95        Mn120   2.204       .  S
N96         C100   1.352       .  A
N97          N98   1.320       .  A
N97        Mn109   2.193       .  S
N98          C99   1.353       .  A
C99         C459   1.466       .  S
C100        C454   1.462       .  S
N101        N107   1.316       .  A
N101        N102   1.318       .  A
N101       Mn131   2.200       .  S
N102        C110   1.351       .  A
N103        N104   1.320       .  A
N103        N105   1.315       .  A
N103       Mn109   2.176       .  S
N104        C111   1.349       .  A
N105        N106   1.320       .  A
N105       Mn131   2.220       .  S
N106        C111   1.355       .  A
N107        N108   1.319       .  A
N107       Mn109   2.184       .  S
N108        C110   1.350       .  A
Mn109      Cl133   2.563       .  S
C110        C478   1.461       .  S
C111        C482   1.469       .  S
N112        N113   1.316       .  A
N112        N118   1.316       .  A
N112       Mn120   2.191       .  S
N113        C121   1.348       .  A
N114        N116   1.315       .  A
N114        N115   1.323       .  A
N114       Mn132   2.200       .  S
N115        C122   1.354       .  A
N116        N117   1.318       .  A
N116       Mn120   2.196       .  S
N117        C122   1.350       .  A
N118        N119   1.325       .  A
N118       Mn132   2.219       .  S
N119        C121   1.357       .  A
Mn120      Cl133   2.522       .  S
C121        C463   1.471       .  S
C122        C466   1.470       .  S
N123        N124   1.317       .  A
N123        N129   1.317       .  A
N123       Mn131   2.195       .  S
N124        C134   1.349       .  A
N125        N126   1.321       .  A
N125        N127   1.316       .  A
N125       Mn132   2.196       .  S
N126        C135   1.352       .  A
N127        N128   1.321       .  A
N127       Mn131   2.215       .  S
N128        C135   1.353       .  A
N129        N130   1.323       .  A
N129       Mn132   2.211       .  S
N130        C134   1.354       .  A
Mn131      Cl133   2.527       .  S
Mn132      Cl133   2.566       .  S
C134        C474   1.468       .  S
C135        C471   1.473       .  S
N136        N137   1.323       .  A
N136        N142   1.314       .  A
N136       Mn165   2.213       .  S
N137        C144   1.356       .  A
N138        N140   1.314       .  A
N138        N139   1.317       .  A
N138       Mn154   2.190       .  S
N139        C145   1.351       .  A
N140        N141   1.324       .  A
N140       Mn165   2.204       .  S
N141        C145   1.355       .  A
N142        N143   1.313       .  A
N142       Mn154   2.164       .  S
N143        C144   1.347       .  A
C144        C491   1.467       .  S
C145        C467   1.477       .  S
N146        N147   1.322       .  A
N146        N701   1.313   1_554  A
N146       Mn176   2.217       .  S
N147        C155   1.355       .  A
N148        N149   1.321       .  A
N148        N699   1.313       .  A
N148       Mn154   2.198       .  S
N149        C705   1.354       .  A
N150        N151   1.324       .  A
N150        N697   1.313   1_554  A
N150       Mn176   2.220       .  S
N151        C156   1.357       .  A
N152        N153   1.315       .  A
N152        N695   1.313       .  A
N152       Mn154   2.166       .  S
N153        C704   1.346       .  A
Mn154      Cl727   2.539       .  S
C155        N702   1.354   1_554  A
C155        C450   1.474       .  S
C156        N698   1.355   1_554  A
C156        C446   1.478       .  S
N157        N158   1.318       .  A
N157        N712   1.319       .  A
N157       Mn165   2.195       .  S
N158        C715   1.349       .  A
N159        N160   1.328       .  A
N159        N710   1.317   1_554  A
N159       Mn177   2.238       .  S
N160        C716   1.361   1_554  A
N161        N162   1.316       .  A
N161        N708   1.318       .  A
N161       Mn165   2.177       .  S
N162        C167   1.344       .  A
N163        N164   1.329       .  A
N163        N706   1.317   1_554  A
N163       Mn177   2.240       .  S
N164        C166   1.360   1_554  A
Mn165      Cl727   2.546       .  S
C166        N707   1.354       .  A
C166        C442   1.496       .  S
C167        N709   1.360       .  A
C167        C987   1.473       .  S
N168        N169   1.318       .  A
N168        N174   1.319       .  A
N168       Mn176   2.203       .  S
N169        C179   1.351       .  A
N170        N171   1.324       .  A
N170        N172   1.318       .  A
N170       Mn177   2.217       .  S
N171        C180   1.355       .  A
N172        N173   1.317       .  A
N172       Mn176   2.201       .  S
N173        C180   1.351       .  A
N174        N175   1.326       .  A
N174       Mn177   2.232       .  S
N175        C179   1.357       .  A
Mn176      Cl178   2.540   1_554  S
Mn177      Cl178   2.568   1_554  S
Cl178      Mn703   2.564       .  S
Cl178      Mn714   2.543       .  S
C179        C487   1.486       .  S
C180        C462   1.479       .  S
N181        N182   1.326       .  A
N181        N187   1.314       .  A
N181       Mn210   2.223       .  S
N182        C189   1.359       .  A
N183        N185   1.313       .  A
N183        N184   1.311       .  A
N183       Mn199   2.163       .  S
N184        C190   1.346       .  A
N185        N186   1.327       .  A
N185       Mn210   2.222       .  S
N186        C190   1.359       .  A
N187        N188   1.315       .  A
N187       Mn199   2.178       .  S
N188        C189   1.348       .  A
C189        C539   1.480       .  S
C190        C499   1.476       .  S
N191        N192   1.323       .  A
N191        N746   1.313   1_554  A
N191       Mn221   2.209       .  S
N192        C200   1.355   1_554  A
N193        N194   1.315       .  A
N193        N744   1.313       .  A
N193       Mn199   2.169       .  S
N194        C750   1.346       .  A
N195        N196   1.317       .  A
N195        N742   1.312   1_554  A
N195       Mn221   2.188       .  S
N196        C201   1.354       .  A
N197        N198   1.319       .  A
N197        N740   1.313       .  A
N197       Mn199   2.188       .  S
N198        C749   1.350       .  A
Mn199      Cl772   2.523       .  S
C200        N747   1.357       .  A
C200        C447   1.476       .  S
C201        N743   1.345   1_554  A
C201        C435   1.453   1_554  S
N202        N203   1.320       .  A
N202        N757   1.319       .  A
N202       Mn210   2.198       .  S
N203        C760   1.349       .  A
N204        N205   1.321       .  A
N204        N755   1.319   1_554  A
N204       Mn222   2.218       .  S
N205        C761   1.352       .  A
N206        N207   1.319       .  A
N206        N753   1.318       .  A
N206       Mn210   2.203       .  S
N207        C212   1.353       .  A
N208        N209   1.325       .  A
N208        N751   1.317   1_554  A
N208       Mn222   2.229       .  S
N209        C211   1.358   1_554  A
Mn210      Cl772   2.560       .  S
C211        N752   1.347       .  A
C211        C430   1.476       .  S
C212        N754   1.350       .  A
C212        C427   1.468       .  S
N213        N214   1.321       .  A
N213        N219   1.317       .  A
N213       Mn221   2.199       .  S
N214        C224   1.351       .  A
N215        N216   1.324       .  A
N215        N217   1.317       .  A
N215       Mn222   2.220       .  S
N216        C225   1.356       .  A
N217        N218   1.314       .  A
N217       Mn221   2.182       .  S
N218        C225   1.349       .  A
N219        N220   1.326       .  A
N219       Mn222   2.234       .  S
N220        C224   1.358       .  A
Mn221      Cl223   2.549       .  S
Mn222      Cl223   2.549       .  S
Cl223      Mn748   2.529   1_554  S
Cl223      Mn759   2.561   1_554  S
C224        C534   1.487       .  S
C225        C495   1.473       .  S
N226        N227   1.327       .  A
N226        N232   1.318       .  A
N226       Mn255   2.241       .  S
N227        C234   1.360       .  A
N228        N230   1.318       .  A
N228        N229   1.317       .  A
N228       Mn244   2.191       .  S
N229        C235   1.349       .  A
N230        N231   1.329       .  A
N230       Mn255   2.252       .  S
N231        C235   1.362       .  A
N232        N233   1.317       .  A
N232       Mn244   2.188       .  S
N233        C234   1.349       .  A
C234        C522   1.484       .  S
C235        C514   1.492       .  S
N236        N237   1.325       .  A
N236        N791   1.312   1_554  A
N236       Mn266   2.227       .  S
N237        C245   1.362   1_554  A
N238        N239   1.321       .  A
N238        N789   1.312       .  A
N238       Mn244   2.206       .  S
N239        C795   1.357       .  A
N240        N241   1.315       .  A
N240        N787   1.313   1_554  A
N240       Mn266   2.166       .  S
N241        C246   1.345       .  A
N242        N243   1.320       .  A
N242        N785   1.312       .  A
N242       Mn244   2.199       .  S
N243        C794   1.356       .  A
Mn244      Cl817   2.542       .  S
C245        N792   1.342       .  A
C245        C418   1.469       .  S
C246        N788   1.360   1_554  A
C246        C423   1.470       .  S
N247        N248   1.325       .  A
N247        N802   1.318       .  A
N247       Mn255   2.242       .  S
N248        C805   1.360       .  A
N249        N250   1.329       .  A
N249        N800   1.319   1_554  A
N249       Mn267   2.250       .  S
N250        C806   1.362   1_554  A
N251        N252   1.328       .  A
N251        N798   1.319       .  A
N251       Mn255   2.252       .  S
N252        C257   1.362       .  A
N253        N254   1.321       .  A
N253        N796   1.319   1_554  A
N253       Mn267   2.209       .  S
N254        C256   1.350       .  A
Mn255      Cl817   2.542       .  S
C256        N797   1.360   1_554  A
C256        C439   1.490       .  S
C257        N799   1.344       .  A
C257        C414   1.476       .  S
N258        N259   1.318       .  A
N258        N264   1.316       .  A
N258       Mn266   2.199       .  S
N259        C269   1.351       .  A
N260        N261   1.328       .  A
N260        N262   1.316       .  A
N260       Mn267   2.242       .  S
N261        C270   1.360       .  A
N262        N263   1.312       .  A
N262       Mn266   2.163       .  S
N263        C270   1.345       .  A
N264        N265   1.325       .  A
N264       Mn267   2.218       .  S
N265        C269   1.357       .  A
Mn266      Cl268   2.538   1_554  S
Mn267      Cl268   2.554   1_554  S
Cl268      Mn793   2.530       .  S
Cl268      Mn804   2.560       .  S
C269        C519   1.482       .  S
C270        C511   1.478       .  S
N271        N272   1.322       .  A
N271        N826   1.314   1_554  A
N271       Mn300   2.215       .  S
N272        C279   1.358   1_554  A
N273        N274   1.319       .  A
N273        N824   1.313       .  A
N273       Mn289   2.190       .  S
N274        C829   1.354       .  A
N275        N276   1.317       .  A
N275        N822   1.313   1_554  A
N275       Mn300   2.179       .  S
N276        C280   1.347       .  A
N277        N278   1.317       .  A
N277        N820   1.314       .  A
N277       Mn289   2.175       .  S
N278        C828   1.347       .  A
C279        N827   1.347       .  A
C279        C422   1.474       .  S
C280        N823   1.356   1_554  A
C280        C411   1.468       .  S
N281        N287   1.315       .  A
N281        N282   1.325       .  A
N281       Mn311   2.214       .  S
N282        C290   1.356       .  A
N283        N284   1.316       .  A
N283        N285   1.315       .  A
N283       Mn289   2.180       .  S
N284        C291   1.348       .  A
N285        N286   1.328       .  A
N285       Mn311   2.239       .  S
N286        C291   1.361       .  A
N287        N288   1.315       .  A
N287       Mn289   2.181       .  S
N288        C290   1.350       .  A
Mn289      Cl862   2.534       .  S
C290        C475   1.477       .  S
C291        C531   1.486       .  S
N292        N293   1.317       .  A
N292        N298   1.316       .  A
N292       Mn300   2.189       .  S
N293        C301   1.349       .  A
N294        N296   1.317       .  A
N294        N295   1.327       .  A
N294       Mn312   2.241       .  S
N295        C302   1.359       .  A
N296        N297   1.317       .  A
N296       Mn300   2.185       .  S
N297        C302   1.349       .  A
N298        N299   1.324       .  A
N298       Mn312   2.217       .  S
N299        C301   1.356       .  A
Mn300      Cl313   2.540   1_554  S
C301        C470   1.476       .  S
C302        C527   1.486       .  S
N303        N304   1.319       .  A
N303        N858   1.318       .  A
N303       Mn311   2.199       .  S
N304        C314   1.350       .  A
N305        N306   1.326       .  A
N305        N856   1.319   1_554  A
N305       Mn312   2.243       .  S
N306        C315   1.358       .  A
N307        N308   1.321       .  A
N307        N854   1.318       .  A
N307       Mn311   2.214       .  S
N308        C864   1.354       .  A
N309        N310   1.323       .  A
N309        N852   1.318   1_554  A
N309       Mn312   2.218       .  S
N310        C863   1.355   1_554  A
Mn311      Cl862   2.554       .  S
Mn312      Cl313   2.554   1_554  S
Cl313      Mn838   2.535       .  S
Cl313      Mn860   2.561       .  S
C314        N859   1.352       .  A
C314        C426   1.468       .  S
C315        N857   1.356   1_554  A
C315        C443   1.498       .  S
N316        N317   1.330       .  A
N316        N322   1.314       .  A
N316       Mn345   2.242       .  S
N317        C324   1.363       .  A
N318        N320   1.314       .  A
N318        N319   1.311       .  A
N318       Mn334   2.157       .  S
N319        C325   1.344       .  A
N320        N321   1.328       .  A
N320       Mn345   2.238       .  S
N321        C325   1.362       .  A
N322        N323   1.309       .  A
N322       Mn334   2.152       .  S
N323        C324   1.342       .  A
C324        C507   1.479       .  S
C325        C483   1.478       .  S
N326        N327   1.320       .  A
N326        N881   1.312   1_554  A
N326       Mn356   2.197       .  S
N327        C335   1.356   1_554  A
N328        N329   1.318       .  A
N328        N879   1.311       .  A
N328       Mn334   2.172       .  S
N329        C885   1.348       .  A
N330        N331   1.315       .  A
N330        N877   1.313   1_554  A
N330       Mn356   2.158       .  S
N331        C336   1.343       .  A
N332        N333   1.317       .  A
N332        N875   1.312       .  A
N332       Mn334   2.172       .  S
N333        C884   1.348       .  A
Mn334      Cl907   2.517       .  S
C335        N882   1.348       .  A
C335        C410   1.469       .  S
C336        N878   1.361   1_554  A
C336        C419   1.470       .  S
N337        N338   1.325       .  A
N337        N892   1.319       .  A
N337       Mn345   2.232       .  S
N338        C895   1.357       .  A
N339        N340   1.320       .  A
N339        N890   1.318   1_554  A
N339       Mn357   2.197       .  S
N340        C896   1.349       .  A
N341        N342   1.326       .  A
N341        N888   1.318       .  A
N341       Mn345   2.232       .  S
N342        C347   1.359       .  A
N343        N344   1.318       .  A
N343        N886   1.319   1_554  A
N343       Mn357   2.204       .  S
N344        C346   1.349       .  A
Mn345      Cl907   2.569       .  S
C346        N887   1.361   1_554  A
C346        C406   1.487       .  S
C347        N889   1.348       .  A
C347        C980   1.479       .  S
N348        N349   1.315       .  A
N348        N354   1.314       .  A
N348       Mn356   2.173       .  S
N349        C359   1.346       .  A
N350        N351   1.324       .  A
N350        N352   1.314       .  A
N350       Mn357   2.211       .  S
N351        C360   1.355       .  A
N352        N353   1.312       .  A
N352       Mn356   2.164       .  S
N353        C360   1.347       .  A
N354        N355   1.326       .  A
N354       Mn357   2.226       .  S
N355        C359   1.360       .  A
Mn356      Cl358   2.533       .  S
Mn357      Cl358   2.551       .  S
Cl358      Mn883   2.535   1_554  S
Cl358      Mn894   2.559   1_554  S
C359        C502   1.477       .  S
C360        C479   1.468       .  S
N361        N362   1.316       .  A
N361        N916   1.311   1_554  A
N361       Mn390   2.156       .  S
N362        C369   1.346       .  A
N363        N364   1.316       .  A
N363        N914   1.311       .  A
N363       Mn379   2.187       .  S
N364        C919   1.353       .  A
N365        N366   1.321       .  A
N365        N912   1.312   1_554  A
N365       Mn390   2.201       .  S
N366        C370   1.353       .  A
N367        N368   1.317       .  A
N367        N910   1.312       .  A
N367       Mn379   2.199       .  S
N368        C918   1.354       .  A
C369        N917   1.354   1_554  A
C369        C434   1.456       .  S
C370        N913   1.355   1_554  A
C370        C451   1.471       .  S
N371        N377   1.314       .  A
N371        N372   1.319       .  A
N371       Mn401   2.193       .  S
N372        C380   1.351       .  A
N373        N374   1.317       .  A
N373        N375   1.316       .  A
N373       Mn379   2.180       .  S
N374        C381   1.346       .  A
N375        N376   1.329       .  A
N375       Mn401   2.248       .  S
N376        C381   1.363       .  A
N377        N378   1.318       .  A
N377       Mn379   2.189       .  S
N378        C380   1.352       .  A
Mn379      Cl952   2.539       .  S
C380        C458   1.467       .  S
C381        C547   1.483       .  S
N382        N383   1.307       .  A
N382        N388   1.314       .  A
N382       Mn390   2.147       .  S
N383        C391   1.342       .  A
N384        N386   1.315       .  A
N384        N385   1.325       .  A
N384       Mn402   2.213       .  S
N385        C392   1.356       .  A
N386        N387   1.317       .  A
N386       Mn390   2.191       .  S
N387        C392   1.351       .  A
N388        N389   1.329       .  A
N388       Mn402   2.234       .  S
N389        C391   1.362       .  A
Mn390      Cl403   2.534       .  S
C391        C455   1.477       .  S
C392        C542   1.479       .  S
N393        N394   1.319       .  A
N393        N948   1.319       .  A
N393       Mn401   2.190       .  S
N394        C404   1.347       .  A
N395        N396   1.323       .  A
N395        N946   1.318   1_554  A
N395       Mn402   2.217       .  S
N396        C405   1.356   1_554  A
N397        N398   1.322       .  A
N397        N944   1.319       .  A
N397       Mn401   2.222       .  S
N398        C954   1.352       .  A
N399        N400   1.320       .  A
N399        N942   1.319   1_554  A
N399       Mn402   2.211       .  S
N400        C953   1.349       .  A
Mn401      Cl952   2.541       .  S
Mn402      Cl403   2.558       .  S
Cl403      Mn928   2.540   1_554  S
Cl403      Mn950   2.559   1_554  S
C404        N949   1.359       .  A
C404        C415   1.479       .  S
C405        N947   1.355       .  A
C405        C407   1.492       .  S
C406        C407   1.347   1_554  D
C406        H408   1.086       .  S
C407        H409   1.086       .  S
C410        C411   1.337   1_556  D
C410        H961   1.087       .  S
C411        H413   1.087       .  S
H412        C959   1.087       .  S
C414        C415   1.337   1_565  D
C414        H965   1.087   1_565  S
C415        H417   1.086       .  S
H416        C963   1.086   1_545  S
C418        C419   1.331   1_556  D
C418        H969   1.087       .  S
C419        H421   1.087       .  S
H420        C967   1.087       .  S
C422        C423   1.336   1_556  D
C422        H973   1.087       .  S
C423        H425   1.087       .  S
H424        C971   1.087       .  S
C426        C427   1.340   1_565  D
C426        H428   1.086       .  S
C427        H978   1.086   1_545  S
H429        C976   1.086       .  S
C430        C431   1.339   1_656  D
C430        H981   1.087   1_655  S
C431        C896   1.478       .  S
C431        H433   1.086       .  S
H432        C979   1.087   1_455  S
C434        C435   1.332   1_554  D
C434        H436   1.087       .  S
C435        H986   1.087       .  S
H437        C984   1.087       .  S
C438        C716   1.490       .  S
C438        C439   1.344   1_656  D
C438        H440   1.086       .  S
C439        H990   1.086       .  S
H441        C988   1.087       .  S
C442        C443   1.352   1_556  D
C442        H993   1.086       .  S
C443        H445   1.086       .  S
H444        C991   1.087       .  S
C446        C447   1.349   1_554  D
C446        H448   1.086       .  S
C447        H998   1.086       .  S
H449        C996   1.087       .  S
C450        C451   1.344       .  D
C450       H1001   1.086       .  S
C451        H453   1.086       .  S
H452        C999   1.087       .  S
C454        C455   1.350       .  D
C454        H456   1.086       .  S
C455        H457   1.086       .  S
C458        C459   1.339       .  D
C458        H460   1.086       .  S
C459        H461   1.087       .  S
C462        C463   1.343       .  D
C462        H464   1.086       .  S
C463        H465   1.087       .  S
C466        C467   1.343       .  D
C466        H468   1.086       .  S
C467        H469   1.086       .  S
C470        C471   1.346       .  D
C470        H472   1.086       .  S
C471        H473   1.086       .  S
C474        C475   1.344       .  D
C474        H476   1.086       .  S
C475        H477   1.086       .  S
C478        C479   1.344       .  D
C478        H480   1.086       .  S
C479        H481   1.086       .  S
C482        C483   1.351       .  D
C482        H484   1.086       .  S
C483        H485   1.086       .  S
C486        C487   1.346       .  D
C486        H488   1.087       .  S
C487        H489   1.086       .  S
C490        C491   1.344       .  D
C490        H492   1.086       .  S
C491        H493   1.086       .  S
C494        C495   1.344       .  D
C494        H496   1.086       .  S
C495        H497   1.086       .  S
C498        C499   1.347       .  D
C498        H500   1.086       .  S
C499        H501   1.086       .  S
C502        C503   1.350       .  D
C502        H504   1.086       .  S
C503        H505   1.086       .  S
C506        C507   1.352       .  D
C506        H508   1.086       .  S
C507        H509   1.086       .  S
C510        C511   1.349       .  D
C510        H512   1.086       .  S
C511        H513   1.086       .  S
C514        C515   1.354       .  D
C514        H516   1.086       .  S
C515        H517   1.086       .  S
C518        C519   1.347       .  D
C518        H520   1.086       .  S
C519        H521   1.086       .  S
C522        C523   1.352       .  D
C522        H524   1.086       .  S
C523        H525   1.086       .  S
C526        C527   1.349       .  D
C526        H528   1.086       .  S
C527        H529   1.086       .  S
C530        C531   1.352       .  D
C530        H532   1.086       .  S
C531        H533   1.086       .  S
C534        C535   1.351       .  D
C534        H536   1.086       .  S
C535        H537   1.086       .  S
C538        C539   1.348       .  D
C538        H540   1.086       .  S
C539        H541   1.086       .  S
C542        C543   1.345       .  D
C542        H544   1.086       .  S
C543        H545   1.086       .  S
C546        C547   1.339       .  D
C546        H548   1.086       .  S
C547        H549   1.086       .  S
N550        N551   1.321       .  A
N550        N556   1.315       .  A
N550       Mn579   2.218       .  S
N551        C558   1.355       .  A
N552        N554   1.314       .  A
N552        N553   1.317       .  A
N552       Mn568   2.170       .  S
N553        C559   1.349       .  A
N554        N555   1.319       .  A
N554       Mn579   2.200       .  S
N555        C559   1.352       .  A
N556        N557   1.318       .  A
N556       Mn568   2.174       .  S
N557        C558   1.348       .  A
C558       C1072   1.467       .  S
C559       C1067   1.460       .  S
N560        N566   1.315       .  A
N560        N561   1.319       .  A
N560       Mn590   2.215       .  S
N561        C569   1.354       .  A
N562        N563   1.316       .  A
N562        N564   1.316       .  A
N562       Mn568   2.165   1_545  S
N563        C570   1.343       .  A
N564        N565   1.327       .  A
N564       Mn590   2.253       .  S
N565        C570   1.364       .  A
N566        N567   1.319       .  A
N566       Mn568   2.173   1_545  S
N567        C569   1.348       .  A
Mn568      Cl592   2.553   1_565  S
C569       C1092   1.464       .  S
C570       C1095   1.479       .  S
N571        N572   1.318       .  A
N571        N577   1.316       .  A
N571       Mn579   2.203       .  S
N572        C580   1.350       .  A
N573        N575   1.316       .  A
N573        N574   1.323       .  A
N573       Mn591   2.202   1_565  S
N574        C581   1.353       .  A
N575        N576   1.318       .  A
N575       Mn579   2.204       .  S
N576        C581   1.351       .  A
N577        N578   1.326       .  A
N577       Mn591   2.220   1_565  S
N578        C580   1.357       .  A
Mn579      Cl592   2.534   1_565  S
C580       C1075   1.478       .  S
C581       C1079   1.470       .  S
N582        N583   1.320       .  A
N582        N588   1.318       .  A
N582       Mn590   2.212       .  S
N583        C593   1.352       .  A
N584        N585   1.322       .  A
N584        N586   1.318       .  A
N584       Mn591   2.199       .  S
N585        C594   1.352       .  A
N586        N587   1.324       .  A
N586       Mn590   2.238       .  S
N587        C594   1.357       .  A
N588        N589   1.323       .  A
N588       Mn591   2.211       .  S
N589        C593   1.354       .  A
Mn590      Cl592   2.540       .  S
Mn591      Cl592   2.564       .  S
C593       C1087   1.476       .  S
C594       C1084   1.484       .  S
N595        N596   1.318       .  A
N595        N601   1.314       .  A
N595       Mn624   2.196       .  S
N596        C603   1.350       .  A
N597        N599   1.315       .  A
N597        N598   1.325       .  A
N597       Mn613   2.205   1_655  S
N598        C604   1.354       .  A
N599        N600   1.319       .  A
N599       Mn624   2.211       .  S
N600        C604   1.353       .  A
N601        N602   1.319       .  A
N601       Mn613   2.183   1_655  S
N602        C603   1.351       .  A
C603       C1039   1.463       .  S
C604       C1035   1.478       .  S
N605        N611   1.316       .  A
N605        N606   1.317       .  A
N605       Mn635   2.198       .  S
N606        C614   1.350       .  A
N607        N608   1.322       .  A
N607        N609   1.316       .  A
N607       Mn613   2.196       .  S
N608        C615   1.352       .  A
N609        N610   1.319       .  A
N609       Mn635   2.211       .  S
N610        C615   1.353       .  A
N611        N612   1.317       .  A
N611       Mn613   2.173       .  S
N612        C614   1.348       .  A
Mn613      Cl637   2.562       .  S
C614       C1059   1.453       .  S
C615       C1064   1.471       .  S
N616        N617   1.317       .  A
N616        N622   1.316       .  A
N616       Mn624   2.196       .  S
N617        C625   1.350       .  A
N618        N620   1.315       .  A
N618        N619   1.318       .  A
N618       Mn636   2.171   1_655  S
N619        C626   1.348       .  A
N620        N621   1.317       .  A
N620       Mn624   2.201       .  S
N621        C626   1.351       .  A
N622        N623   1.323       .  A
N622       Mn636   2.204   1_655  S
N623        C625   1.354       .  A
Mn624      Cl637   2.526   1_655  S
C625       C1043   1.467       .  S
C626       C1047   1.456       .  S
N627        N628   1.319       .  A
N627        N633   1.316       .  A
N627       Mn635   2.209       .  S
N628        C638   1.352       .  A
N629        N630   1.318       .  A
N629        N631   1.315       .  A
N629       Mn636   2.176       .  S
N630        C639   1.349       .  A
N631        N632   1.321       .  A
N631       Mn635   2.214       .  S
N632        C639   1.354       .  A
N633        N634   1.325       .  A
N633       Mn636   2.209       .  S
N634        C638   1.355       .  A
Mn635      Cl637   2.527       .  S
Mn636      Cl637   2.563       .  S
C638       C1055   1.477       .  S
C639       C1052   1.468       .  S
N640        N641   1.317       .  A
N640        N646   1.316       .  A
N640       Mn669   2.197       .  S
N641        C648   1.348       .  A
N642        N644   1.316       .  A
N642        N643   1.324       .  A
N642       Mn658   2.196       .  S
N643        C649   1.351       .  A
N644        N645   1.318       .  A
N644       Mn669   2.212       .  S
N645        C649   1.353       .  A
N646        N647   1.322       .  A
N646       Mn658   2.200       .  S
N647        C648   1.355       .  A
C648       C1008   1.468       .  S
C649       C1003   1.470       .  S
N650        N656   1.316       .  A
N650        N651   1.322       .  A
N650       Mn680   2.213       .  S
N651        C659   1.354       .  A
N652        N653   1.324       .  A
N652        N654   1.316       .  A
N652       Mn658   2.202       .  S
N653        C660   1.354       .  A
N654        N655   1.320       .  A
N654       Mn680   2.214       .  S
N655        C660   1.352       .  A
N656        N657   1.318       .  A
N656       Mn658   2.189       .  S
N657        C659   1.350       .  A
Mn658      Cl682   2.571       .  S
C659       C1027   1.471       .  S
C660       C1031   1.477       .  S
N661        N662   1.320       .  A
N661        N667   1.317       .  A
N661       Mn669   2.216       .  S
N662        C670   1.353       .  A
N663        N665   1.315       .  A
N663        N664   1.320       .  A
N663       Mn681   2.194       .  S
N664        C671   1.353       .  A
N665        N666   1.320       .  A
N665       Mn669   2.201       .  S
N666        C671   1.351       .  A
N667        N668   1.326       .  A
N667       Mn681   2.213       .  S
N668        C670   1.355       .  A
Mn669      Cl682   2.525       .  S
C670       C1012   1.480       .  S
C671       C1015   1.471       .  S
N672        N673   1.317       .  A
N672        N678   1.317       .  A
N672       Mn680   2.201       .  S
N673        C683   1.350       .  A
N674        N675   1.320       .  A
N674        N676   1.316       .  A
N674       Mn681   2.189       .  S
N675        C684   1.351       .  A
N676        N677   1.320       .  A
N676       Mn680   2.214       .  S
N677        C684   1.353       .  A
N678        N679   1.324       .  A
N678       Mn681   2.207       .  S
N679        C683   1.354       .  A
Mn680      Cl682   2.529       .  S
Mn681      Cl682   2.570       .  S
C683       C1023   1.469       .  S
C684       C1020   1.470       .  S
N685        N686   1.321       .  A
N685        N691   1.317       .  A
N685       Mn714   2.206       .  S
N686        C693   1.352       .  A
N687        N689   1.317       .  A
N687        N688   1.319       .  A
N687       Mn703   2.203       .  S
N688        C694   1.352       .  A
N689        N690   1.321       .  A
N689       Mn714   2.204       .  S
N690        C694   1.351       .  A
N691        N692   1.316       .  A
N691       Mn703   2.188       .  S
N692        C693   1.350       .  A
C693       C1040   1.467       .  S
C694       C1016   1.472       .  S
N695        N696   1.320       .  A
N695       Mn725   2.199       .  S
N696        C704   1.355       .  A
N697        N698   1.323       .  A
N697       Mn703   2.215       .  S
N699        N700   1.318       .  A
N699       Mn725   2.185       .  S
N700        C705   1.349       .  A
N701        N702   1.322       .  A
N701       Mn703   2.202       .  S
C704        C999   1.459       .  S
C705        C995   1.468       .  S
N706        N707   1.323       .  A
N706       Mn714   2.219       .  S
N708        N709   1.325       .  A
N708       Mn726   2.238       .  S
N710        N711   1.321       .  A
N710       Mn714   2.205       .  S
N711        C716   1.351       .  A
N712        N713   1.323       .  A
N712       Mn726   2.225       .  S
N713        C715   1.356       .  A
C715        C991   1.474       .  S
N717        N718   1.315       .  A
N717        N723   1.316       .  A
N717       Mn725   2.186       .  S
N718        C728   1.348       .  A
N719        N720   1.329       .  A
N719        N721   1.316       .  A
N719       Mn726   2.246       .  S
N720        C729   1.362       .  A
N721        N722   1.315       .  A
N721       Mn725   2.178       .  S
N722        C729   1.348       .  A
N723        N724   1.328       .  A
N723       Mn726   2.238       .  S
N724        C728   1.361       .  A
Mn725      Cl727   2.532       .  S
Mn726      Cl727   2.561       .  S
C728       C1036   1.486       .  S
C729       C1011   1.489       .  S
N730        N731   1.325       .  A
N730        N736   1.315       .  A
N730       Mn759   2.213       .  S
N731        C738   1.357       .  A
N732        N734   1.315       .  A
N732        N733   1.309       .  A
N732       Mn748   2.158       .  S
N733        C739   1.345       .  A
N734        N735   1.325       .  A
N734       Mn759   2.219       .  S
N735        C739   1.357       .  A
N736        N737   1.317       .  A
N736       Mn748   2.194       .  S
N737        C738   1.350       .  A
C738       C1088   1.481       .  S
C739       C1048   1.468       .  S
N740        N741   1.319       .  A
N740       Mn770   2.195       .  S
N741        C749   1.354       .  A
N742        N743   1.314       .  A
N742       Mn748   2.158       .  S
N744        N745   1.321       .  A
N744       Mn770   2.196       .  S
N745        C750   1.355       .  A
N746        N747   1.324       .  A
N746       Mn748   2.217       .  S
C749        C996   1.469       .  S
C750        C984   1.460       .  S
N751        N752   1.318       .  A
N751       Mn759   2.191       .  S
N753        N754   1.320       .  A
N753       Mn771   2.201       .  S
N755        N756   1.324       .  A
N755       Mn759   2.220       .  S
N756        C761   1.356   1_556  A
N757        N758   1.324       .  A
N757       Mn771   2.233       .  S
N758        C760   1.358       .  A
C760        C979   1.480       .  S
C761        C976   1.482       .  S
N762        N763   1.319       .  A
N762        N768   1.317       .  A
N762       Mn770   2.186       .  S
N763        C773   1.349       .  A
N764        N765   1.324       .  A
N764        N766   1.315       .  A
N764       Mn771   2.212       .  S
N765        C774   1.355       .  A
N766        N767   1.315       .  A
N766       Mn770   2.186       .  S
N767        C774   1.350       .  A
N768        N769   1.327       .  A
N768       Mn771   2.246       .  S
N769        C773   1.361       .  A
Mn770      Cl772   2.544       .  S
Mn771      Cl772   2.547       .  S
C773       C1083   1.487       .  S
C774       C1044   1.476       .  S
N775        N776   1.327       .  A
N775        N781   1.315       .  A
N775       Mn804   2.236       .  S
N776        C783   1.360       .  A
N777        N779   1.315       .  A
N777        N778   1.314       .  A
N777       Mn793   2.183       .  S
N778        C784   1.347       .  A
N779        N780   1.327       .  A
N779       Mn804   2.221       .  S
N780        C784   1.359       .  A
N781        N782   1.312       .  A
N781       Mn793   2.156       .  S
N782        C783   1.345       .  A
C783       C1071   1.474       .  S
C784       C1063   1.479       .  S
N785        N786   1.316       .  A
N785       Mn815   2.169       .  S
N786        C794   1.347       .  A
N787        N788   1.325       .  A
N787       Mn793   2.220       .  S
N789        N790   1.315       .  A
N789       Mn815   2.160       .  S
N790        C795   1.345       .  A
N791        N792   1.314       .  A
N791       Mn793   2.153       .  S
C794        C967   1.464       .  S
C795        C972   1.462       .  S
N796        N797   1.328       .  A
N796       Mn804   2.242       .  S
N798        N799   1.316       .  A
N798       Mn816   2.177       .  S
N800        N801   1.321       .  A
N800       Mn804   2.207       .  S
N801        C806   1.349       .  A
N802        N803   1.317       .  A
N802       Mn816   2.176       .  S
N803        C805   1.344       .  A
C805        C988   1.473       .  S
C806        C963   1.492       .  S
N807        N808   1.312       .  A
N807        N813   1.312       .  A
N807       Mn815   2.162       .  S
N808        C818   1.347       .  A
N809        N810   1.324       .  A
N809        N811   1.311       .  A
N809       Mn816   2.200       .  S
N810        C819   1.356       .  A
N811        N812   1.308       .  A
N811       Mn815   2.149       .  S
N812        C819   1.345       .  A
N813        N814   1.323       .  A
N813       Mn816   2.201       .  S
N814        C818   1.355       .  A
Mn815      Cl817   2.531       .  S
Mn816      Cl817   2.553       .  S
C818       C1068   1.467       .  S
C819       C1060   1.463       .  S
N820        N821   1.319       .  A
N820       Mn849   2.198       .  S
N821        C828   1.356       .  A
N822        N823   1.322       .  A
N822       Mn838   2.202       .  S
N824        N825   1.317       .  A
N824       Mn849   2.181       .  S
N825        C829   1.348       .  A
N826        N827   1.319       .  A
N826       Mn838   2.180       .  S
C828        C971   1.465       .  S
C829        C960   1.463       .  S
N830        N836   1.315       .  A
N830        N831   1.326       .  A
N830       Mn860   2.221       .  S
N831        C839   1.357       .  A
N832        N833   1.314       .  A
N832        N834   1.315       .  A
N832       Mn838   2.179       .  S
N833        C840   1.347       .  A
N834        N835   1.327       .  A
N834       Mn860   2.227       .  S
N835        C840   1.359       .  A
N836        N837   1.314       .  A
N836       Mn838   2.177       .  S
N837        C839   1.348       .  A
C839       C1024   1.479       .  S
C840       C1080   1.480       .  S
N841        N842   1.315       .  A
N841        N847   1.315       .  A
N841       Mn849   2.179       .  S
N842        C850   1.348       .  A
N843        N845   1.316       .  A
N843        N844   1.326       .  A
N843       Mn861   2.227       .  S
N844        C851   1.357       .  A
N845        N846   1.318       .  A
N845       Mn849   2.191       .  S
N846        C851   1.351       .  A
N847        N848   1.325       .  A
N847       Mn861   2.219       .  S
N848        C850   1.358       .  A
Mn849      Cl862   2.537       .  S
C850       C1019   1.475       .  S
C851       C1076   1.485       .  S
N852        N853   1.323       .  A
N852       Mn860   2.217       .  S
N853        C863   1.353       .  A
N854        N855   1.321       .  A
N854       Mn861   2.208       .  S
N855        C864   1.351       .  A
N856        N857   1.325       .  A
N856       Mn860   2.223       .  S
N858        N859   1.319       .  A
N858       Mn861   2.204       .  S
Mn861      Cl862   2.550       .  S
C863        C975   1.483       .  S
C864        C992   1.476       .  S
N865        N866   1.328       .  A
N865        N871   1.317       .  A
N865       Mn894   2.244       .  S
N866        C873   1.360       .  A
N867        N869   1.317       .  A
N867        N868   1.316       .  A
N867       Mn883   2.193       .  S
N868        C874   1.349       .  A
N869        N870   1.327       .  A
N869       Mn894   2.230       .  S
N870        C874   1.359       .  A
N871        N872   1.315       .  A
N871       Mn883   2.179       .  S
N872        C873   1.348       .  A
C873       C1056   1.486       .  S
C874       C1032   1.484       .  S
N875        N876   1.318       .  A
N875       Mn905   2.191       .  S
N876        C884   1.354       .  A
N877        N878   1.325       .  A
N877       Mn883   2.226       .  S
N879        N880   1.319       .  A
N879       Mn905   2.196       .  S
N880        C885   1.355       .  A
N881        N882   1.318       .  A
N881       Mn883   2.180       .  S
C884        C959   1.463       .  S
C885        C968   1.466       .  S
N886        N887   1.330       .  A
N886       Mn894   2.248       .  S
N888        N889   1.318       .  A
N888       Mn906   2.197       .  S
N890        N891   1.323       .  A
N890       Mn894   2.228       .  S
N891        C896   1.357   1_556  A
N892        N893   1.320       .  A
N892       Mn906   2.209       .  S
N893        C895   1.351       .  A
C895        C955   1.483       .  S
N897        N898   1.315       .  A
N897        N903   1.316       .  A
N897       Mn905   2.175       .  S
N898        C908   1.348       .  A
N899        N900   1.323       .  A
N899        N901   1.316       .  A
N899       Mn906   2.214       .  S
N900        C909   1.355       .  A
N901        N902   1.317       .  A
N901       Mn905   2.182       .  S
N902        C909   1.349       .  A
N903        N904   1.324       .  A
N903       Mn906   2.219       .  S
N904        C908   1.356       .  A
Mn905      Cl907   2.546       .  S
Mn906      Cl907   2.537       .  S
C908       C1051   1.471       .  S
C909       C1028   1.472       .  S
N910        N911   1.319       .  A
N910       Mn939   2.169       .  S
N911        C918   1.348       .  A
N912        N913   1.323       .  A
N912       Mn928   2.205       .  S
N914        N915   1.319       .  A
N914       Mn939   2.170       .  S
N915        C919   1.349       .  A
N916        N917   1.316       .  A
N916       Mn928   2.191       .  S
C918        C983   1.465       .  S
C919       C1000   1.464       .  S
N920        N926   1.318       .  A
N920        N921   1.321       .  A
N920       Mn950   2.212       .  S
N921        C929   1.352       .  A
N922        N923   1.314       .  A
N922        N924   1.318       .  A
N922       Mn928   2.166       .  S
N923        C930   1.340       .  A
N924        N925   1.330       .  A
N924       Mn950   2.254       .  S
N925        C930   1.365       .  A
N926        N927   1.318       .  A
N926       Mn928   2.198       .  S
N927        C929   1.353       .  A
C929       C1007   1.472       .  S
C930       C1096   1.477       .  S
N931        N932   1.308       .  A
N931        N937   1.314       .  A
N931       Mn939   2.148       .  S
N932        C940   1.342       .  A
N933        N935   1.314       .  A
N933        N934   1.329       .  A
N933       Mn951   2.235       .  S
N934        C941   1.362       .  A
N935        N936   1.309       .  A
N935       Mn939   2.153       .  S
N936        C941   1.343       .  A
N937        N938   1.333       .  A
N937       Mn951   2.252       .  S
N938        C940   1.366       .  A
Mn939      Cl952   2.523       .  S
C940       C1004   1.486       .  S
C941       C1091   1.476       .  S
N942        N943   1.329       .  A
N942       Mn950   2.247       .  S
N943        C953   1.362   1_556  A
N944        N945   1.324       .  A
N944       Mn951   2.218       .  S
N945        C954   1.356       .  A
N946        N947   1.326       .  A
N946       Mn950   2.233       .  S
N948        N949   1.324       .  A
N948       Mn951   2.240       .  S
Mn951      Cl952   2.568       .  S
C953        C964   1.491       .  S
C954        C956   1.484       .  S
C955        C956   1.344       .  D
C955        H957   1.086       .  S
C956        H958   1.086       .  S
C959        C960   1.336       .  D
C960        H962   1.087       .  S
C963        C964   1.343   1_566  D
C964        H966   1.086       .  S
C967        C968   1.336       .  D
C968        H970   1.087       .  S
C971        C972   1.334       .  D
C972        H974   1.087       .  S
C975        C976   1.345   1_566  D
C975        H977   1.086   1_565  S
C979        C980   1.340   1_655  D
C980        H982   1.087       .  S
C983        C984   1.335       .  D
C983        H985   1.086       .  S
C987        C988   1.334   1_655  D
C987        H989   1.087   1_655  S
C991        C992   1.341       .  D
C992        H994   1.086       .  S
C995        C996   1.339       .  D
C995        H997   1.087       .  S
C999       C1000   1.335       .  D
C1000      H1002   1.087       .  S
C1003      C1004   1.354       .  D
C1003      H1005   1.086       .  S
C1004      H1006   1.086       .  S
C1007      C1008   1.340       .  D
C1007      H1009   1.086       .  S
C1008      H1010   1.087       .  S
C1011      C1012   1.352       .  D
C1011      H1013   1.086       .  S
C1012      H1014   1.086       .  S
C1015      C1016   1.342       .  D
C1015      H1017   1.086       .  S
C1016      H1018   1.086       .  S
C1019      C1020   1.347       .  D
C1019      H1021   1.086       .  S
C1020      H1022   1.086       .  S
C1023      C1024   1.346       .  D
C1023      H1025   1.087       .  S
C1024      H1026   1.086       .  S
C1027      C1028   1.346       .  D
C1027      H1029   1.086       .  S
C1028      H1030   1.086       .  S
C1031      C1032   1.349       .  D
C1031      H1033   1.086       .  S
C1032      H1034   1.086       .  S
C1035      C1036   1.350       .  D
C1035      H1037   1.086       .  S
C1036      H1038   1.086       .  S
C1039      C1040   1.341       .  D
C1039      H1041   1.087       .  S
C1040      H1042   1.086       .  S
C1043      C1044   1.344       .  D
C1043      H1045   1.086       .  S
C1044      H1046   1.086       .  S
C1047      C1048   1.344       .  D
C1047      H1049   1.086       .  S
C1048      H1050   1.086       .  S
C1051      C1052   1.346       .  D
C1051      H1053   1.086       .  S
C1052      H1054   1.086       .  S
C1055      C1056   1.350       .  D
C1055      H1057   1.086       .  S
C1056      H1058   1.086       .  S
C1059      C1060   1.343       .  D
C1059      H1061   1.086       .  S
C1060      H1062   1.086       .  S
C1063      C1064   1.348       .  D
C1063      H1065   1.086       .  S
C1064      H1066   1.086       .  S
C1067      C1068   1.344       .  D
C1067      H1069   1.086       .  S
C1068      H1070   1.086       .  S
C1071      C1072   1.349       .  D
C1071      H1073   1.086       .  S
C1072      H1074   1.086       .  S
C1075      C1076   1.347       .  D
C1075      H1077   1.086       .  S
C1076      H1078   1.086       .  S
C1079      C1080   1.348       .  D
C1079      H1081   1.086       .  S
C1080      H1082   1.086       .  S
C1083      C1084   1.353       .  D
C1083      H1085   1.086       .  S
C1084      H1086   1.086       .  S
C1087      C1088   1.347       .  D
C1087      H1089   1.086       .  S
C1088      H1090   1.086       .  S
C1091      C1092   1.350       .  D
C1091      H1093   1.086       .  S
C1092      H1094   1.086       .  S
C1095      C1096   1.333       .  D
C1095      H1097   1.086       .  S
C1096      H1098   1.087       .  S
