geometry optimzed in LAMMPS
_audit_creation_date              2020-11-30 
_audit_creation_method            'lammps2cif' 
_symmetry_space_group_name_H-M    'P1' 
_symmetry_Int_Tables_number       1 
_symmetry_cell_setting            triclinic 
loop_ 
_symmetry_equiv_pos_as_xyz 
  x,y,z 
_cell_length_a                    36.38569089 
_cell_length_b                    39.81388707082851 
_cell_length_c                    27.586124771359003 
_cell_angle_alpha                 90.0000671985654 
_cell_angle_beta                  90.04636266531621 
_cell_angle_gamma                 89.99963036965113 
loop_ 
_atom_site_label 
_atom_site_type_symbol 
_atom_site_fract_x 
_atom_site_fract_y 
_atom_site_fract_z 
_atom_site_charge 
O1          O  0.48022003  0.05045945  0.94973454    -0.85800
C2          C  0.43504017  0.45758013  0.95980323     0.90200
Mg3        Mg  0.03599391  0.05852152  0.92859817     1.58100
O4          O  0.45552324  0.49513663  0.07201537    -0.85500
O5          O  0.44463305  0.06195148  0.01161203    -0.72900
C6          C  0.13207050  0.44866547  0.05900595     0.95300
O7          O  0.49787178  0.48517698  0.88608840    -0.72700
O8          O  0.13378071  0.46383137  0.01849529    -0.80200
Mg9        Mg  0.44789130  0.01823355  0.90400916     1.58000
C10         C  0.50782875  0.44007239  0.17905388     0.95200
O11         O  0.39556584  0.04988260  0.91389740    -0.78500
H12         H  0.44975157  0.03314329  0.11875527    -0.03800
C13         C  0.03170980  0.42951582  0.02073803     0.90100
O14         O  0.05384924  0.06297211  0.00817764    -0.73000
O15         O  0.43539329  0.48829963  0.96633778    -0.85700
O16         O  0.47899886  0.43918706  0.15287063    -0.78500
C17         C  0.37474983  0.44382099  0.07507119     0.95300
C18         C  0.36752902  0.05145320  0.94139171     0.95200
Mg19       Mg  0.05171517  0.48189429  0.09640095     1.58000
O20         O  0.10403566  0.45023747  0.08650394    -0.78500
O21         O  0.00173608  0.01495398  0.11432162    -0.72700
O22         O  0.37375218  0.46968192  0.04785993    -0.78500
O23         O  0.46127032  0.04881132  0.83683154    -0.80300
O24         O  0.12585275  0.03044016  0.95255151    -0.78600
C25         C  0.46794171  0.01481680  0.10262766     0.89600
O26         O  0.06421335  0.01183122  0.03407450    -0.85700
O27         O  0.01938457  0.44967083  0.05067314    -0.85800
O28         O  0.05497069  0.43817699  0.98879702    -0.72900
Mg29       Mg  0.41175228  0.01406473  0.02765647     1.58000
O30         O  0.40448551  0.43207050  0.09227611    -0.80300
H31         H  0.47822664  0.09600050  0.97973418    -0.04000
O32         O  0.04408125  0.00499481  0.92839823    -0.85500
H33         H  0.04985787  0.46699106  0.88165428    -0.03800
H34         H  0.07308641  0.05224353  0.07545591    -0.04000
C35         C  0.03166559  0.48531571  0.89778327     0.89600
C36         C  0.46789556  0.07061245  0.97967258     0.90200
C37         C  0.06456362  0.04255117  0.04060783     0.90200
H38         H  0.02138247  0.40412437  0.02068062    -0.04000
O39         O  0.44575511  0.43715844  0.99223173    -0.73000
Mg40       Mg  0.08785050  0.48606427  0.97275482     1.58000
H41         H  0.42651484  0.44788897  0.92495586    -0.04000
C42         C  0.99177581  0.06005355  0.82135254     0.95200
O43         O  0.09512312  0.06805155  0.90813059    -0.80200
C44         C  0.12485781  0.05629660  0.92533259     0.95300
O45         O  0.36582109  0.03629519  0.98190921    -0.80200
Mg46       Mg  0.46361250  0.44160855  0.07180952     1.58200
O47         O  0.02060764  0.06094130  0.84753291    -0.78500
O48         O  0.03833561  0.45131506  0.16357962    -0.80200
C49         C  0.49893720  0.09226878  0.63994707     0.48000
H50         H  0.99895695  0.06434327  0.64006978    -0.01000
C51         C  0.49893495  0.15791100  0.63999822     0.48000
H52         H  0.49895249  0.18583661  0.64016361    -0.01000
C53         C  0.49679201  0.10787250  0.69078234    -0.14700
C54         C  0.03336771  0.10791397  0.61712310    -0.14500
C55         C  0.46661694  0.10790165  0.61213521    -0.14900
C56         C  0.99679076  0.14226966  0.69081005    -0.14800
C57         C  0.03336642  0.14228416  0.61714877    -0.14400
C58         C  0.46661567  0.14229670  0.61216254    -0.14700
O59         O  0.01938098  0.30041615  0.05075257    -0.85800
C60         C  0.06456584  0.20753416  0.04070046     0.90200
Mg61       Mg  0.46360746  0.30848074  0.07188172     1.58100
O62         O  0.04407433  0.24508199  0.92848769    -0.85500
O63         O  0.05496738  0.31190697  0.98887692    -0.72900
C64         C  0.36752433  0.19862369  0.94148009     0.95300
O65         O  0.00172998  0.23514245  0.11441486    -0.72700
O66         O  0.36581506  0.21378499  0.98199530    -0.80200
Mg67       Mg  0.05171144  0.26819787  0.09648623     1.58000
C68         C  0.49176891  0.19002004  0.82144134     0.95200
O69         O  0.10403488  0.29985085  0.08658163    -0.78500
H70         H  0.04984871  0.28308372  0.88174095    -0.03800
C71         C  0.46789567  0.17946834  0.97978132     0.90100
O72         O  0.44575576  0.31292120  0.99230268    -0.73000
O73         O  0.06421226  0.23825375  0.03416447    -0.85700
O74         O  0.02059940  0.18912921  0.84762472    -0.78500
C75         C  0.12485343  0.19378201  0.92541214     0.93700
C76         C  0.13206786  0.30142271  0.05907989     0.95200
Mg77       Mg  0.44788682  0.23183855  0.90410093     1.58000
O78         O  0.39556390  0.20018894  0.91399062    -0.78500
O79         O  0.49786417  0.26489611  0.88617593    -0.72700
O80         O  0.12584959  0.21964002  0.95262873    -0.78500
O81         O  0.03832839  0.29878899  0.16365308    -0.80300
O82         O  0.37374669  0.28040428  0.04793011    -0.78600
C83         C  0.03165774  0.26475931  0.89787103     0.89600
O84         O  0.43539049  0.26177708  0.96642337    -0.85700
O85         O  0.48021689  0.19961577  0.94983281    -0.85800
O86         O  0.44463115  0.18813333  0.01171619    -0.72900
Mg87       Mg  0.08784545  0.26401694  0.97283695     1.58000
O88         O  0.09511744  0.18202439  0.90821863    -0.80300
H89         H  0.02138344  0.34596341  0.02076305    -0.04000
O90         O  0.45551640  0.25495336  0.07210266    -0.85500
H91         H  0.44974518  0.21695335  0.11885505    -0.03800
H92         H  0.42651748  0.30218273  0.92502807    -0.04000
C93         C  0.46793555  0.23527792  0.10272088     0.89600
C94         C  0.03170806  0.32057036  0.02081859     0.90200
C95         C  0.43504027  0.29249563  0.95988012     0.90200
H96         H  0.47823156  0.15408178  0.97985691    -0.04000
O97         O  0.05385220  0.18711080  0.00827276    -0.73000
Mg98       Mg  0.41174645  0.23601970  0.02774414     1.58000
H99         H  0.07309201  0.19784373  0.07554962    -0.04000
C100        C  0.50782114  0.31003445  0.17912308     0.95200
O101        O  0.40447875  0.31802030  0.09233966    -0.80200
C102        C  0.37474379  0.30626793  0.07513549     0.95300
O103        O  0.13377630  0.28625512  0.01857017    -0.80200
Mg104      Mg  0.03599006  0.19155411  0.92869230     1.58200
O105        O  0.47899016  0.31091322  0.15294154    -0.78500
O106        O  0.46126311  0.20126096  0.83692161    -0.80200
C107        C  0.50059142  0.40791697  0.36045634     0.48000
H108        H  0.00057407  0.43584295  0.36029426    -0.01000
C109        C  0.50059076  0.34227553  0.36049693     0.48000
H110        H  0.50057274  0.31435006  0.36036874    -0.01000
C111        C  0.50275086  0.39228035  0.30964474    -0.14700
C112        C  0.03290554  0.39230134  0.38829793    -0.14500
C113        C  0.46615453  0.39228855  0.38328712    -0.14900
C114        C  0.00275000  0.35788295  0.30966617    -0.14800
C115        C  0.03290534  0.35790630  0.38831986    -0.14400
C116        C  0.46615427  0.35791819  0.38330880    -0.14700
O117        O  0.26934375  0.05052704  0.55060065    -0.85800
C118        C  0.31451794  0.45764759  0.54053955     0.90200
Mg119      Mg  0.21357121  0.05858783  0.57174261     1.58100
O120        O  0.29404203  0.49519891  0.42832334    -0.85500
O121        O  0.30492878  0.06201503  0.48871920    -0.72900
C122        C  0.11749264  0.44873297  0.44133964     0.95300
O123        O  0.25169689  0.48524252  0.61424917    -0.72700
O124        O  0.11578549  0.46389713  0.48185184    -0.80200
Mg125      Mg  0.30167444  0.01830158  0.59632767     1.58000
C126        C  0.24173810  0.44012714  0.32129186     0.95200
O127        O  0.35399694  0.04995319  0.58644027    -0.78500
H128        H  0.29981608  0.03320082  0.38157516    -0.03800
C129        C  0.21785031  0.42957887  0.47959504     0.90100
O130        O  0.19570927  0.06303765  0.49216331    -0.73000
O131        O  0.31416983  0.48836682  0.53400125    -0.85700
O132        O  0.27056856  0.43924599  0.34747423    -0.78500
C133        C  0.37481430  0.44388431  0.42528196     0.95300
C134        C  0.38203566  0.05152179  0.55894958     0.95200
Mg135      Mg  0.19784845  0.48195795  0.40393563     1.58000
O136        O  0.14552470  0.45030615  0.41383658    -0.78500
O137        O  0.24783058  0.01501335  0.38601123    -0.72700
O138        O  0.37581117  0.46974618  0.45249073    -0.78500
O139        O  0.28829871  0.04887590  0.66350934    -0.80300
O140        O  0.12371281  0.03050624  0.54779932    -0.78600
C141        C  0.28162461  0.01487622  0.39770657     0.89600
O142        O  0.18534950  0.01189688  0.46626321    -0.85700
O143        O  0.23017741  0.44973528  0.44966404    -0.85800
O144        O  0.19459226  0.43824032  0.51153957    -0.72900
Mg145      Mg  0.33781249  0.01412927  0.47268358     1.58000
O146        O  0.34507954  0.43213285  0.40807590    -0.80300
H147        H  0.27132985  0.09606506  0.52058687    -0.04000
O148        O  0.20548701  0.00506015  0.57193990    -0.85500
H149        H  0.19971175  0.46705509  0.61868165    -0.03800
H150        H  0.17647003  0.05230990  0.42488525    -0.04000
C151        C  0.21790333  0.48538057  0.60255390     0.89600
C152        C  0.28166504  0.07067731  0.52065641     0.90200
C153        C  0.18499586  0.04261696  0.45973200     0.90200
H154        H  0.22817400  0.40418651  0.47964565    -0.04000
O155        O  0.30380138  0.43722504  0.50811341    -0.73000
Mg156      Mg  0.16171600  0.48612988  0.52758728     1.58000
H157        H  0.32303948  0.44795753  0.57538938    -0.04000
C158        C  0.25779320  0.06011653  0.67899083     0.95200
O159        O  0.15444400  0.06811747  0.59221784    -0.80200
C160        C  0.12470851  0.05636254  0.57501910     0.95300
O161        O  0.38374497  0.03636195  0.51843319    -0.80200
Mg162      Mg  0.28595078  0.44167169  0.42853463     1.58200
O163        O  0.22896200  0.06100722  0.65280909    -0.78500
O164        O  0.21123062  0.45137172  0.33676283    -0.80200
C165        C  0.24896969  0.34224243  0.13996398     0.48000
H166        H  0.24898622  0.31431685  0.14012898    -0.01000
C167        C  0.24897263  0.40788381  0.13991671     0.48000
H168        H  0.24899143  0.43580976  0.14004218    -0.01000
C169        C  0.24681240  0.35788202  0.19077461    -0.14700
C170        C  0.28340662  0.35786889  0.11712967    -0.14500
C171        C  0.21665516  0.35785741  0.11212151    -0.14900
C172        C  0.24681348  0.39227936  0.19074902    -0.14800
C173        C  0.28340852  0.39223937  0.11710571    -0.14400
C174        C  0.21665697  0.39225255  0.11209655    -0.14700
O175        O  0.23018075  0.30049307  0.44975647    -0.85800
C176        C  0.18500376  0.20761090  0.45980499     0.90200
Mg177      Mg  0.28595366  0.30855568  0.42862179     1.58100
O178        O  0.20547938  0.24515732  0.57202317    -0.85500
O179        O  0.19459300  0.31197895  0.51163456    -0.72900
C180        C  0.38203513  0.19870282  0.55903347     0.95300
O181        O  0.24783108  0.23521479  0.38609816    -0.72700
O182        O  0.38374384  0.21386242  0.51851703    -0.80200
Mg183      Mg  0.19785120  0.26827289  0.40402221     1.58000
C184        C  0.25778382  0.19009215  0.67906375     0.95200
O185        O  0.14552993  0.29992848  0.41392093    -0.78500
H186        H  0.19970184  0.28315819  0.61877067    -0.03800
C187        C  0.28167030  0.17954462  0.52074440     0.90100
O188        O  0.30381037  0.31300086  0.50820098    -0.73000
O189        O  0.18535170  0.23833030  0.46634348    -0.85700
O190        O  0.22895309  0.18920403  0.65288106    -0.78500
C191        C  0.12470314  0.19385387  0.57507811     0.95300
C192        C  0.11749344  0.30149686  0.44141641     0.95200
Mg193      Mg  0.30167048  0.23191988  0.59641490     1.58000
O194        O  0.35399765  0.20027258  0.58652679    -0.78500
O195        O  0.25168805  0.26497403  0.61433591    -0.72700
O196        O  0.12370742  0.21971242  0.54786282    -0.78500
O197        O  0.21123164  0.29885683  0.33684774    -0.80300
O198        O  0.37581386  0.28047878  0.45256931    -0.78600
C199        C  0.21789430  0.26483509  0.60264055     0.89600
O200        O  0.31417080  0.26185812  0.53409030    -0.85700
O201        O  0.26934402  0.19969569  0.55068363    -0.85800
O202        O  0.30493308  0.18820792  0.48880689    -0.72900
Mg203      Mg  0.16171116  0.26409089  0.52766630     1.58000
O204        O  0.15443864  0.18209773  0.59227636    -0.80300
H205        H  0.22818485  0.34603534  0.47976421    -0.04000
O206        O  0.29404249  0.25502750  0.42841124    -0.85500
H207        H  0.29981531  0.21702501  0.38166460    -0.03800
H208        H  0.32304889  0.30226690  0.57547724    -0.04000
C209        C  0.28162487  0.23535021  0.39779456     0.89600
C210        C  0.21785553  0.32064365  0.47969767     0.90200
C211        C  0.31452408  0.29257733  0.54062783     0.90200
H212        H  0.27134026  0.15415494  0.52067981    -0.04000
O213        O  0.19571766  0.18718769  0.49223248    -0.73000
Mg214      Mg  0.33781314  0.23609604  0.47276944     1.58000
H215        H  0.17648329  0.19792086  0.42495386    -0.04000
C216        C  0.24173925  0.31009841  0.32137422     0.95200
O217        O  0.34508045  0.31809220  0.40815639    -0.80200
C218        C  0.37481617  0.30633978  0.42535820     0.95300
O219        O  0.11578217  0.28632774  0.48192470    -0.80200
Mg220      Mg  0.21356918  0.19163085  0.57181452     1.58200
O221        O  0.27056882  0.31098192  0.34755854    -0.78500
O222        O  0.28828900  0.20133779  0.66358837    -0.80200
C223        C  0.25062387  0.15788008  0.86047062     0.48000
H224        H  0.25060334  0.18580561  0.86034565    -0.01000
C225        C  0.25062826  0.09223780  0.86042567     0.48000
H226        H  0.25061151  0.06431217  0.86026301    -0.01000
C227        C  0.25277011  0.14227389  0.80963653    -0.14700
C228        C  0.28294382  0.14224898  0.88828520    -0.14500
C229        C  0.21619379  0.14223499  0.88329561    -0.14900
C230        C  0.25277269  0.10787665  0.80961296    -0.14800
C231        C  0.28294627  0.10785410  0.88826053    -0.14400
C232        C  0.21619614  0.10786491  0.88327198    -0.14700
C233        C  0.25602124  0.17639832  0.72721147    -0.10700
C234        C  0.25452909  0.16217038  0.76579410    -0.12300
C235        C  0.24502262  0.33801162  0.23463936    -0.10700
C236        C  0.24350946  0.32379142  0.27322649    -0.12300
C237        C  0.24502217  0.41218042  0.23458306    -0.10700
C238        C  0.24350693  0.42642173  0.27315291    -0.12300
C239        C  0.25602981  0.07379759  0.72714696    -0.10700
C240        C  0.25453569  0.08800762  0.76574380    -0.12300
C241        C  0.06169315  0.33775943  0.40971251    -0.10700
C242        C  0.08661346  0.32104394  0.42549507    -0.12300
C243        C  0.43558300  0.33802580  0.40036823    -0.10700
C244        C  0.40856230  0.32285347  0.41296591    -0.12300
C245        C  0.43558298  0.41219100  0.40032026    -0.10700
C246        C  0.40856069  0.42736769  0.41290065    -0.12300
C247        C  0.06169369  0.41245985  0.40966326    -0.10700
C248        C  0.08661399  0.42918256  0.42542730    -0.12300
C249        C  0.18562616  0.16212256  0.90037798    -0.10700
C250        C  0.15860272  0.17728177  0.91299818    -0.12300
C251        C  0.33663730  0.17909466  0.92553472    -0.10700
C252        C  0.31171936  0.16239325  0.90971368    -0.12300
C253        C  0.16294618  0.32097495  0.07499187    -0.10700
C254        C  0.18786618  0.33769844  0.09075661    -0.12300
C255        C  0.34099766  0.32278586  0.08751535    -0.10700
C256        C  0.31397661  0.33796447  0.10009599    -0.12300
C257        C  0.50605338  0.32374280  0.22726020    -0.10700
C258        C  0.50454020  0.33798429  0.26582998    -0.12300
C259        C  0.06393116  0.16218511  0.60009028    -0.10700
C260        C  0.09095389  0.17735044  0.58748312    -0.12300
C261        C  0.43783688  0.16245435  0.59076826    -0.10700
C262        C  0.41291903  0.17916620  0.57496993    -0.12300
C263        C  0.43783904  0.08775790  0.59071009    -0.10700
C264        C  0.41292114  0.07105411  0.57489337    -0.12300
C265        C  0.09095941  0.07286467  0.58742872    -0.10700
C266        C  0.06393586  0.08802577  0.60004381    -0.12300
C267        C  0.49353375  0.17634110  0.77328348    -0.10700
C268        C  0.99502805  0.16213545  0.73468295    -0.12300
C269        C  0.31172557  0.08769838  0.90965641    -0.10700
C270        C  0.33664455  0.07098841  0.92545504    -0.12300
C271        C  0.15860716  0.07279929  0.91292962    -0.10700
C272        C  0.18563091  0.08796414  0.90032683    -0.12300
C273        C  0.49353783  0.07374508  0.77320386    -0.10700
C274        C  0.49503104  0.08797366  0.73462205    -0.12300
C275        C  0.34100379  0.42730454  0.08745830    -0.10700
C276        C  0.31398218  0.41213073  0.10004992    -0.12300
C277        C  0.16294943  0.42911699  0.07492585    -0.10700
C278        C  0.18786919  0.41239981  0.09070556    -0.12300
C279        C  0.50454396  0.41215403  0.26578390    -0.10700
C280        C  0.50605948  0.42637807  0.22720023    -0.12300
O281        O  0.48022004  0.55045938  0.94973459    -0.85800
C282        C  0.43504023  0.95758022  0.95980328     0.90200
Mg283      Mg  0.03599391  0.55852145  0.92859817     1.58100
O284        O  0.45552323  0.99513661  0.07201536    -0.85500
O285        O  0.44463310  0.56195156  0.01161201    -0.72900
C286        C  0.13207055  0.94866547  0.05900597     0.95300
O287        O  0.49787178  0.98517690  0.88608842    -0.72700
O288        O  0.13378074  0.96383136  0.01849529    -0.80200
Mg289      Mg  0.44789122  0.51823359  0.90400915     1.58000
C290        C  0.50782864  0.94007245  0.17905390     0.95200
O291        O  0.39556587  0.54988274  0.91389743    -0.78500
H292        H  0.44975159  0.53314330  0.11875545    -0.03800
C293        C  0.03170985  0.92951574  0.02073802     0.90100
O294        O  0.05384923  0.56297203  0.00817762    -0.73000
O295        O  0.43539338  0.98829968  0.96633784    -0.85700
O296        O  0.47899875  0.93918718  0.15287062    -0.78500
C297        C  0.37474986  0.94382102  0.07507121     0.95300
C298        C  0.36752904  0.55145322  0.94139171     0.95200
Mg299      Mg  0.05171521  0.98189425  0.09640094     1.58000
O300        O  0.10403570  0.95023742  0.08650394    -0.78500
O301        O  0.00173599  0.51495393  0.11432166    -0.72700
O302        O  0.37375225  0.96968193  0.04785990    -0.78500
O303        O  0.46127030  0.54881133  0.83683152    -0.80300
O304        O  0.12585275  0.53044020  0.95255152    -0.78600
C305        C  0.46794177  0.51481677  0.10262769     0.89600
O306        O  0.06421332  0.51183116  0.03407452    -0.85700
O307        O  0.01938461  0.94967074  0.05067314    -0.85800
O308        O  0.05497073  0.93817695  0.98879702    -0.72900
Mg309      Mg  0.41175229  0.51406470  0.02765646     1.58000
O310        O  0.40448550  0.93207047  0.09227612    -0.80300
H311        H  0.47822706  0.59600125  0.97973404    -0.04000
O312        O  0.04408127  0.50499475  0.92839823    -0.85500
H313        H  0.04985764  0.96699135  0.88165470    -0.03800
H314        H  0.07308632  0.55224361  0.07545658    -0.04000
C315        C  0.03166568  0.98531563  0.89778326     0.89600
C316        C  0.46789556  0.57061229  0.97967254     0.90200
C317        C  0.06456350  0.54255106  0.04060774     0.90200
H318        H  0.02138256  0.90412434  0.02068061    -0.04000
O319        O  0.44575510  0.93715845  0.99223168    -0.73000
Mg320      Mg  0.08785051  0.98606431  0.97275482     1.58000
H321        H  0.42651483  0.94788902  0.92495554    -0.04000
C322        C  0.99177577  0.56005360  0.82135257     0.95200
O323        O  0.09512316  0.56805163  0.90813060    -0.80200
C324        C  0.12485785  0.55629663  0.92533258     0.95300
O325        O  0.36582111  0.53629511  0.98190914    -0.80200
Mg326      Mg  0.46361243  0.94160850  0.07180951     1.58200
O327        O  0.02060761  0.56094124  0.84753291    -0.78500
O328        O  0.03833563  0.95131500  0.16357962    -0.80200
C329        C  0.49893723  0.59226890  0.63994705     0.48000
H330        H  0.99895710  0.56434292  0.64006980    -0.01000
C331        C  0.49893497  0.65791101  0.63999824     0.48000
H332        H  0.49895249  0.68583669  0.64016365    -0.01000
C333        C  0.49679194  0.60787250  0.69078232    -0.14700
C334        C  0.03336772  0.60791404  0.61712313    -0.14500
C335        C  0.46661698  0.60790163  0.61213517    -0.14900
C336        C  0.99679075  0.64226967  0.69081006    -0.14800
C337        C  0.03336637  0.64228424  0.61714872    -0.14400
C338        C  0.46661571  0.64229672  0.61216252    -0.14700
O339        O  0.01938102  0.80041613  0.05075253    -0.85800
C340        C  0.06456589  0.70753414  0.04070052     0.90200
Mg341      Mg  0.46360745  0.80848073  0.07188170     1.58100
O342        O  0.04407434  0.74508197  0.92848769    -0.85500
O343        O  0.05496742  0.81190707  0.98887691    -0.72900
C344        C  0.36752436  0.69862379  0.94148007     0.95300
O345        O  0.00173003  0.73514240  0.11441485    -0.72700
O346        O  0.36581507  0.71378510  0.98199527    -0.80200
Mg347      Mg  0.05171147  0.76819789  0.09648623     1.58000
C348        C  0.49176889  0.69002011  0.82144134     0.95200
O349        O  0.10403491  0.79985080  0.08658172    -0.78500
H350        H  0.04984889  0.78308367  0.88174088    -0.03800
C351        C  0.46789565  0.67946851  0.97978131     0.90100
O352        O  0.44575579  0.81292123  0.99230264    -0.73000
O353        O  0.06421233  0.73825376  0.03416453    -0.85700
O354        O  0.02059933  0.68912930  0.84762475    -0.78500
C355        C  0.12485342  0.69378208  0.92541214     0.93700
C356        C  0.13206783  0.80142272  0.05907990     0.95200
Mg357      Mg  0.44788686  0.73183866  0.90410094     1.58000
O358        O  0.39556392  0.70018909  0.91399061    -0.78500
O359        O  0.49786423  0.76489623  0.88617597    -0.72700
O360        O  0.12584962  0.71964009  0.95262872    -0.78500
O361        O  0.03832839  0.79878894  0.16365314    -0.80300
O362        O  0.37374672  0.78040421  0.04793016    -0.78600
C363        C  0.03165781  0.76475929  0.89787101     0.89600
O364        O  0.43539057  0.76177708  0.96642344    -0.85700
O365        O  0.48021687  0.69961578  0.94983280    -0.85800
O366        O  0.44463119  0.68813327  0.01171619    -0.72900
Mg367      Mg  0.08784544  0.76401695  0.97283695     1.58000
O368        O  0.09511740  0.68202452  0.90821864    -0.80300
H369        H  0.02138373  0.84596274  0.02076322    -0.04000
O370        O  0.45551640  0.75495329  0.07210265    -0.85500
H371        H  0.44974548  0.71695362  0.11885476    -0.03800
H372        H  0.42651751  0.80218268  0.92502806    -0.04000
C373        C  0.46793546  0.73527778  0.10272095     0.89600
C374        C  0.03170804  0.82057055  0.02081862     0.90200
C375        C  0.43504031  0.79249562  0.95988013     0.90200
H376        H  0.47823202  0.65408092  0.97985693    -0.04000
O377        O  0.05385222  0.68711085  0.00827272    -0.73000
Mg378      Mg  0.41174648  0.73601966  0.02774414     1.58000
H379        H  0.07309198  0.69784375  0.07554932    -0.04000
C380        C  0.50782111  0.81003442  0.17912310     0.95200
O381        O  0.40447864  0.81802038  0.09233963    -0.80200
C382        C  0.37474371  0.80626790  0.07513550     0.95300
O383        O  0.13377620  0.78625524  0.01857010    -0.80200
Mg384      Mg  0.03599005  0.69155419  0.92869230     1.58200
O385        O  0.47899018  0.81091331  0.15294151    -0.78500
O386        O  0.46126313  0.70126110  0.83692163    -0.80200
C387        C  0.50059147  0.90791699  0.36045620     0.48000
H388        H  0.00057407  0.93584303  0.36029417    -0.01000
C389        C  0.50059078  0.84227564  0.36049693     0.48000
H390        H  0.50057273  0.81434970  0.36036877    -0.01000
C391        C  0.50275089  0.89228032  0.30964465    -0.14700
C392        C  0.03290559  0.89230138  0.38829780    -0.14500
C393        C  0.46615458  0.89228858  0.38328707    -0.14900
C394        C  0.00274999  0.85788294  0.30966616    -0.14800
C395        C  0.03290534  0.85790631  0.38831983    -0.14400
C396        C  0.46615431  0.85791822  0.38330881    -0.14700
O397        O  0.26934376  0.55052701  0.55060070    -0.85800
C398        C  0.31451799  0.95764757  0.54053960     0.90200
Mg399      Mg  0.21357125  0.55858776  0.57174262     1.58100
O400        O  0.29404204  0.99519885  0.42832335    -0.85500
O401        O  0.30492867  0.56201500  0.48871914    -0.72900
C402        C  0.11749268  0.94873299  0.44133965     0.95300
O403        O  0.25169690  0.98524264  0.61424910    -0.72700
O404        O  0.11578551  0.96389707  0.48185189    -0.80200
Mg405      Mg  0.30167446  0.51830154  0.59632766     1.58000
C406        C  0.24173807  0.94012719  0.32129182     0.95200
O407        O  0.35399695  0.54995328  0.58644024    -0.78500
H408        H  0.29981550  0.53320052  0.38157548    -0.03800
C409        C  0.21785028  0.92957901  0.47959508     0.90100
O410        O  0.19570931  0.56303757  0.49216331    -0.73000
O411        O  0.31416988  0.98836683  0.53400131    -0.85700
O412        O  0.27056849  0.93924598  0.34747424    -0.78500
C413        C  0.37481432  0.94388429  0.42528197     0.95300
C414        C  0.38203570  0.55152175  0.55894958     0.95200
Mg415      Mg  0.19784847  0.98195794  0.40393564     1.58000
O416        O  0.14552472  0.95030625  0.41383656    -0.78500
O417        O  0.24783047  0.51501333  0.38601125    -0.72700
O418        O  0.37581123  0.96974614  0.45249078    -0.78500
O419        O  0.28829875  0.54887581  0.66350935    -0.80300
O420        O  0.12371287  0.53050630  0.54779925    -0.78600
C421        C  0.28162460  0.51487637  0.39770650     0.89600
O422        O  0.18534954  0.51189682  0.46626322    -0.85700
O423        O  0.23017740  0.94973524  0.44966406    -0.85800
O424        O  0.19459227  0.93824032  0.51153957    -0.72900
Mg425      Mg  0.33781247  0.51412926  0.47268357     1.58000
O426        O  0.34507953  0.93213290  0.40807585    -0.80300
H427        H  0.27132993  0.59606492  0.52058703    -0.04000
O428        O  0.20548707  0.50506008  0.57193994    -0.85500
H429        H  0.19971199  0.96705507  0.61868118    -0.03800
H430        H  0.17647000  0.55230989  0.42488497    -0.04000
C431        C  0.21790333  0.98538055  0.60255374     0.89600
C432        C  0.28166503  0.57067732  0.52065646     0.90200
C433        C  0.18499591  0.54261686  0.45973206     0.90200
H434        H  0.22817438  0.90418578  0.47964576    -0.04000
O435        O  0.30380137  0.93722508  0.50811337    -0.73000
Mg436      Mg  0.16171593  0.98612992  0.52758728     1.58000
H437        H  0.32303948  0.94795755  0.57538905    -0.04000
C438        C  0.25779324  0.56011644  0.67899083     0.95200
O439        O  0.15444405  0.56811746  0.59221789    -0.80200
C440        C  0.12470855  0.55636259  0.57501908     0.95300
O441        O  0.38374500  0.53636185  0.51843324    -0.80200
Mg442      Mg  0.28595072  0.94167165  0.42853462     1.58200
O443        O  0.22896205  0.56100713  0.65280909    -0.78500
O444        O  0.21123056  0.95137165  0.33676283    -0.80200
C445        C  0.24896974  0.84224244  0.13996392     0.48000
H446        H  0.24898633  0.81431692  0.14012886    -0.01000
C447        C  0.24897260  0.90788384  0.13991676     0.48000
H448        H  0.24899132  0.93580968  0.14004226    -0.01000
C449        C  0.24681245  0.85788199  0.19077458    -0.14700
C450        C  0.28340665  0.85786899  0.11712965    -0.14500
C451        C  0.21665515  0.85785742  0.11212153    -0.14900
C452        C  0.24681352  0.89227932  0.19074904    -0.14800
C453        C  0.28340852  0.89223947  0.11710571    -0.14400
C454        C  0.21665696  0.89225253  0.11209660    -0.14700
O455        O  0.23018080  0.80049302  0.44975645    -0.85800
C456        C  0.18500376  0.70761093  0.45980506     0.90200
Mg457      Mg  0.28595371  0.80855562  0.42862179     1.58100
O458        O  0.20547942  0.74515727  0.57202316    -0.85500
O459        O  0.19459304  0.81197894  0.51163456    -0.72900
C460        C  0.38203515  0.69870280  0.55903347     0.95300
O461        O  0.24783112  0.73521470  0.38609817    -0.72700
O462        O  0.38374387  0.71386232  0.51851698    -0.80200
Mg463      Mg  0.19785125  0.76827282  0.40402223     1.58000
C464        C  0.25778380  0.69009225  0.67906380     0.95200
O465        O  0.14552997  0.79992840  0.41392093    -0.78500
H466        H  0.19970160  0.78315842  0.61877088    -0.03800
C467        C  0.28167029  0.67954458  0.52074439     0.90100
O468        O  0.30381042  0.81300077  0.50820098    -0.73000
O469        O  0.18535177  0.73833029  0.46634351    -0.85700
O470        O  0.22895314  0.68920397  0.65288099    -0.78500
C471        C  0.12470317  0.69385389  0.57507810     0.95300
C472        C  0.11749347  0.80149679  0.44141640     0.95200
Mg473      Mg  0.30167042  0.73191984  0.59641489     1.58000
O474        O  0.35399769  0.70027267  0.58652683    -0.78500
O475        O  0.25168806  0.76497396  0.61433591    -0.72700
O476        O  0.12370746  0.71971242  0.54786275    -0.78500
O477        O  0.21123170  0.79885675  0.33684777    -0.80300
O478        O  0.37581393  0.78047870  0.45256931    -0.78600
C479        C  0.21789438  0.76483496  0.60264049     0.89600
O480        O  0.31417080  0.76185804  0.53409029    -0.85700
O481        O  0.26934400  0.69969559  0.55068370    -0.85800
O482        O  0.30493297  0.68820800  0.48880682    -0.72900
Mg483      Mg  0.16171121  0.76409091  0.52766631     1.58000
O484        O  0.15443868  0.68209779  0.59227642    -0.80300
H485        H  0.22818457  0.84603460  0.47976415    -0.04000
O486        O  0.29404253  0.75502743  0.42841122    -0.85500
H487        H  0.29981535  0.71702492  0.38166460    -0.03800
H488        H  0.32304894  0.80226681  0.57547724    -0.04000
C489        C  0.28162492  0.73535012  0.39779456     0.89600
C490        C  0.21785563  0.82064379  0.47969766     0.90200
C491        C  0.31452412  0.79257724  0.54062783     0.90200
H492        H  0.27134034  0.65415492  0.52067975    -0.04000
O493        O  0.19571749  0.68718764  0.49223247    -0.73000
Mg494      Mg  0.33781316  0.73609598  0.47276943     1.58000
H495        H  0.17648320  0.69792079  0.42495336    -0.04000
C496        C  0.24173923  0.81009851  0.32137426     0.95200
O497        O  0.34508051  0.81809211  0.40815639    -0.80200
C498        C  0.37481623  0.80633970  0.42535819     0.95300
O499        O  0.11578221  0.78632769  0.48192470    -0.80200
Mg500      Mg  0.21356917  0.69163078  0.57181452     1.58200
O501        O  0.27056883  0.81098208  0.34755853    -0.78500
O502        O  0.28828897  0.70133790  0.66358845    -0.80200
C503        C  0.25062391  0.65788003  0.86047060     0.48000
H504        H  0.25060340  0.68580554  0.86034562    -0.01000
C505        C  0.25062830  0.59223774  0.86042568     0.48000
H506        H  0.25061154  0.56431215  0.86026307    -0.01000
C507        C  0.25277016  0.64227382  0.80963650    -0.14700
C508        C  0.28294386  0.64224894  0.88828520    -0.14500
C509        C  0.21619382  0.64223496  0.88329561    -0.14900
C510        C  0.25277273  0.60787657  0.80961295    -0.14800
C511        C  0.28294630  0.60785408  0.88826053    -0.14400
C512        C  0.21619617  0.60786487  0.88327198    -0.14700
C513        C  0.25602115  0.67639843  0.72721153    -0.10700
C514        C  0.25452908  0.66217035  0.76579407    -0.12300
C515        C  0.24502261  0.83801159  0.23463931    -0.10700
C516        C  0.24350934  0.82379152  0.27322654    -0.12300
C517        C  0.24502222  0.91218039  0.23458309    -0.10700
C518        C  0.24350697  0.92642183  0.27315285    -0.12300
C519        C  0.25602985  0.57379750  0.72714696    -0.10700
C520        C  0.25453573  0.58800753  0.76574380    -0.12300
C521        C  0.06169316  0.83775939  0.40971249    -0.10700
C522        C  0.08661348  0.82104387  0.42549505    -0.12300
C523        C  0.43558302  0.83802587  0.40036824    -0.10700
C524        C  0.40856236  0.82285343  0.41296591    -0.12300
C525        C  0.43558302  0.91219096  0.40032025    -0.10700
C526        C  0.40856070  0.92736761  0.41290065    -0.12300
C527        C  0.06169370  0.91245995  0.40966317    -0.10700
C528        C  0.08661400  0.92918264  0.42542724    -0.12300
C529        C  0.18562617  0.66212256  0.90037798    -0.10700
C530        C  0.15860272  0.67728182  0.91299814    -0.12300
C531        C  0.33663737  0.67909463  0.92553474    -0.10700
C532        C  0.31171944  0.66239320  0.90971370    -0.12300
C533        C  0.16294612  0.82097502  0.07499183    -0.10700
C534        C  0.18786609  0.83769851  0.09075663    -0.12300
C535        C  0.34099754  0.82278578  0.08751530    -0.10700
C536        C  0.31397663  0.83796458  0.10009597    -0.12300
C537        C  0.50605332  0.82374272  0.22726024    -0.10700
C538        C  0.50454006  0.83798423  0.26582998    -0.12300
C539        C  0.06393115  0.66218517  0.60009030    -0.10700
C540        C  0.09095391  0.67735047  0.58748317    -0.12300
C541        C  0.43783694  0.66245436  0.59076827    -0.10700
C542        C  0.41291904  0.67916616  0.57496995    -0.12300
C543        C  0.43783910  0.58775784  0.59071008    -0.10700
C544        C  0.41292122  0.57105403  0.57489335    -0.12300
C545        C  0.09095944  0.57286471  0.58742883    -0.10700
C546        C  0.06393594  0.58802587  0.60004404    -0.12300
C547        C  0.49353366  0.67634116  0.77328347    -0.10700
C548        C  0.99502809  0.66213544  0.73468298    -0.12300
C549        C  0.31172564  0.58769843  0.90965643    -0.10700
C550        C  0.33664461  0.57098849  0.92545511    -0.12300
C551        C  0.15860723  0.57279925  0.91292959    -0.10700
C552        C  0.18563096  0.58796410  0.90032683    -0.12300
C553        C  0.49353782  0.57374518  0.77320391    -0.10700
C554        C  0.49503104  0.58797367  0.73462203    -0.12300
C555        C  0.34100380  0.92730466  0.08745833    -0.10700
C556        C  0.31398218  0.91213088  0.10004995    -0.12300
C557        C  0.16294946  0.92911696  0.07492583    -0.10700
C558        C  0.18786918  0.91239975  0.09070555    -0.12300
C559        C  0.50454395  0.91215397  0.26578381    -0.10700
C560        C  0.50605935  0.92637804  0.22720018    -0.12300
O561        O  0.98022011  0.05045944  0.94973453    -0.85800
C562        C  0.93504024  0.45758014  0.95980321     0.90200
Mg563      Mg  0.53599387  0.05852152  0.92859817     1.58100
O564        O  0.95552318  0.49513664  0.07201541    -0.85500
O565        O  0.94463318  0.06195148  0.01161203    -0.72900
C566        C  0.63207048  0.44866547  0.05900594     0.95300
O567        O  0.99787184  0.48517700  0.88608840    -0.72700
O568        O  0.63378063  0.46383136  0.01849527    -0.80200
Mg569      Mg  0.94789129  0.01823354  0.90400916     1.58000
C570        C  0.00782868  0.44007238  0.17905387     0.95200
O571        O  0.89556593  0.04988262  0.91389740    -0.78500
H572        H  0.94975170  0.03314336  0.11875530    -0.03800
C573        C  0.53170981  0.42951587  0.02073805     0.90100
O574        O  0.55384928  0.06297212  0.00817763    -0.73000
O575        O  0.93539343  0.48829964  0.96633777    -0.85700
O576        O  0.97899877  0.43918706  0.15287064    -0.78500
C577        C  0.87474987  0.44382099  0.07507118     0.95300
C578        C  0.86752912  0.05145321  0.94139171     0.95200
Mg579      Mg  0.55171522  0.48189429  0.09640096     1.58000
O580        O  0.60403570  0.45023747  0.08650398    -0.78500
O581        O  0.50173598  0.01495401  0.11432168    -0.72700
O582        O  0.87375227  0.46968193  0.04785991    -0.78500
O583        O  0.96127029  0.04881129  0.83683155    -0.80300
O584        O  0.62585287  0.03044016  0.95255152    -0.78600
C585        C  0.96794180  0.01481681  0.10262767     0.89600
O586        O  0.56421321  0.01183121  0.03407449    -0.85700
O587        O  0.51938458  0.44967082  0.05067316    -0.85800
O588        O  0.55497062  0.43817700  0.98879701    -0.72900
Mg589      Mg  0.91175234  0.01406474  0.02765648     1.58000
O590        O  0.90448550  0.43207049  0.09227615    -0.80300
H591        H  0.97822678  0.09600050  0.97973418    -0.04000
O592        O  0.54408117  0.00499480  0.92839823    -0.85500
H593        H  0.54985751  0.46699143  0.88165454    -0.03800
H594        H  0.57308641  0.05224357  0.07545621    -0.04000
C595        C  0.53166562  0.48531565  0.89778321     0.89600
C596        C  0.96789568  0.07061244  0.97967258     0.90200
C597        C  0.56456354  0.04255114  0.04060778     0.90200
H598        H  0.52138238  0.40412406  0.02068072    -0.04000
O599        O  0.94575500  0.43715843  0.99223176    -0.73000
Mg600      Mg  0.58785047  0.48606427  0.97275481     1.58000
H601        H  0.92651497  0.44788900  0.92495573    -0.04000
C602        C  0.49177586  0.06005355  0.82135254     0.95200
O603        O  0.59512320  0.06805155  0.90813061    -0.80200
C604        C  0.62485792  0.05629659  0.92533259     0.95300
O605        O  0.86582121  0.03629519  0.98190921    -0.80200
Mg606      Mg  0.96361243  0.44160855  0.07180953     1.58200
O607        O  0.52060767  0.06094128  0.84753292    -0.78500
O608        O  0.53833569  0.45131506  0.16357964    -0.80200
C609        C  0.99893723  0.09226879  0.63994708     0.48000
H610        H  0.49895689  0.06434326  0.64006980    -0.01000
C611        C  0.99893493  0.15791100  0.63999822     0.48000
H612        H  0.99895251  0.18583659  0.64016360    -0.01000
C613        C  0.99679197  0.10787250  0.69078233    -0.14700
C614        C  0.53336768  0.10791395  0.61712304    -0.14500
C615        C  0.96661697  0.10790164  0.61213521    -0.14900
C616        C  0.49679085  0.14226966  0.69081006    -0.14800
C617        C  0.53336642  0.14228415  0.61714872    -0.14400
C618        C  0.96661565  0.14229670  0.61216255    -0.14700
O619        O  0.51938106  0.30041616  0.05075254    -0.85800
C620        C  0.56456588  0.20753413  0.04070051     0.90200
Mg621      Mg  0.96360739  0.30848075  0.07188174     1.58100
O622        O  0.54407436  0.24508199  0.92848765    -0.85500
O623        O  0.55496746  0.31190697  0.98887690    -0.72900
C624        C  0.86752439  0.19862370  0.94148009     0.95300
O625        O  0.50172991  0.23514247  0.11441484    -0.72700
O626        O  0.86581514  0.21378499  0.98199531    -0.80200
Mg627      Mg  0.55171141  0.26819787  0.09648623     1.58000
C628        C  0.99176892  0.19002003  0.82144135     0.95200
O629        O  0.60403483  0.29985087  0.08658164    -0.78500
H630        H  0.54984865  0.28308368  0.88174095    -0.03800
C631        C  0.96789578  0.17946835  0.97978132     0.90100
O632        O  0.94575585  0.31292119  0.99230267    -0.73000
O633        O  0.56421233  0.23825374  0.03416448    -0.85700
O634        O  0.52059935  0.18912921  0.84762477    -0.78500
C635        C  0.62485347  0.19378201  0.92541213     0.93700
C636        C  0.63206782  0.30142270  0.05907991     0.95200
Mg637      Mg  0.94788678  0.23183855  0.90410093     1.58000
O638        O  0.89556395  0.20018892  0.91399061    -0.78500
O639        O  0.99786415  0.26489612  0.88617591    -0.72700
O640        O  0.62584965  0.21964002  0.95262871    -0.78500
O641        O  0.53832840  0.29878902  0.16365309    -0.80300
O642        O  0.87374673  0.28040425  0.04793009    -0.78600
C643        C  0.53165778  0.26475932  0.89787101     0.89600
O644        O  0.93539041  0.26177710  0.96642334    -0.85700
O645        O  0.98021693  0.19961579  0.94983279    -0.85800
O646        O  0.94463127  0.18813333  0.01171621    -0.72900
Mg647      Mg  0.58784543  0.26401693  0.97283694     1.58000
O648        O  0.59511746  0.18202440  0.90821866    -0.80300
H649        H  0.52138359  0.34596345  0.02076310    -0.04000
O650        O  0.95551647  0.25495337  0.07210263    -0.85500
H651        H  0.94974556  0.21695374  0.11885479    -0.03800
H652        H  0.92651758  0.30218285  0.92502777    -0.04000
C653        C  0.96793553  0.23527787  0.10272095     0.89600
C654        C  0.53170817  0.32057037  0.02081860     0.90200
C655        C  0.93504033  0.29249564  0.95988016     0.90200
H656        H  0.97823171  0.15408179  0.97985691    -0.04000
O657        O  0.55385212  0.18711082  0.00827278    -0.73000
Mg658      Mg  0.91174653  0.23601969  0.02774415     1.58000
H659        H  0.57309199  0.19784377  0.07554931    -0.04000
C660        C  0.00782114  0.31003445  0.17912308     0.95200
O661        O  0.90447866  0.31802032  0.09233970    -0.80200
C662        C  0.87474374  0.30626791  0.07513548     0.95300
O663        O  0.63377622  0.28625513  0.01857016    -0.80200
Mg664      Mg  0.53599006  0.19155411  0.92869232     1.58200
O665        O  0.97899015  0.31091325  0.15294155    -0.78500
O666        O  0.96126315  0.20126098  0.83692166    -0.80200
C667        C  0.00059139  0.40791697  0.36045626     0.48000
H668        H  0.50057415  0.43584294  0.36029445    -0.01000
C669        C  0.00059074  0.34227552  0.36049692     0.48000
H670        H  0.00057277  0.31435003  0.36036874    -0.01000
C671        C  0.00275080  0.39228033  0.30964468    -0.14700
C672        C  0.53290557  0.39230132  0.38829796    -0.14500
C673        C  0.96615454  0.39228855  0.38328710    -0.14900
C674        C  0.50275008  0.35788297  0.30966619    -0.14800
C675        C  0.53290536  0.35790629  0.38831986    -0.14400
C676        C  0.96615427  0.35791818  0.38330883    -0.14700
O677        O  0.76934380  0.05052705  0.55060069    -0.85800
C678        C  0.81451784  0.45764761  0.54053956     0.90200
Mg679      Mg  0.71357130  0.05858782  0.57174261     1.58100
O680        O  0.79404206  0.49519891  0.42832330    -0.85500
O681        O  0.80492871  0.06201503  0.48871913    -0.72900
C682        C  0.61749266  0.44873300  0.44133963     0.95300
O683        O  0.75169696  0.48524251  0.61424913    -0.72700
O684        O  0.61578551  0.46389713  0.48185184    -0.80200
Mg685      Mg  0.80167438  0.01830158  0.59632767     1.58000
C686        C  0.74173801  0.44012715  0.32129185     0.95200
O687        O  0.85399692  0.04995321  0.58644022    -0.78500
H688        H  0.79981571  0.03320044  0.38157544    -0.03800
C689        C  0.71785035  0.42957887  0.47959509     0.90100
O690        O  0.69570937  0.06303763  0.49216329    -0.73000
O691        O  0.81416968  0.48836683  0.53400125    -0.85700
O692        O  0.77056846  0.43924599  0.34747423    -0.78500
C693        C  0.87481428  0.44388430  0.42528195     0.95300
C694        C  0.88203569  0.05152178  0.55894958     0.95200
Mg695      Mg  0.69784848  0.48195793  0.40393565     1.58000
O696        O  0.64552473  0.45030613  0.41383658    -0.78500
O697        O  0.74783053  0.01501338  0.38601122    -0.72700
O698        O  0.87581118  0.46974617  0.45249071    -0.78500
O699        O  0.78829869  0.04887592  0.66350930    -0.80300
O700        O  0.62371291  0.03050626  0.54779934    -0.78600
C701        C  0.78162464  0.01487628  0.39770650     0.89600
O702        O  0.68534940  0.01189689  0.46626320    -0.85700
O703        O  0.73017745  0.44973530  0.44966411    -0.85800
O704        O  0.69459219  0.43824031  0.51153950    -0.72900
Mg705      Mg  0.83781242  0.01412926  0.47268358     1.58000
O706        O  0.84507949  0.43213285  0.40807592    -0.80300
H707        H  0.77132991  0.09606514  0.52058700    -0.04000
O708        O  0.70548709  0.00506015  0.57193992    -0.85500
H709        H  0.69971165  0.46705474  0.61868158    -0.03800
H710        H  0.67646999  0.05230987  0.42488559    -0.04000
C711        C  0.71790346  0.48538058  0.60255371     0.89600
C712        C  0.78166509  0.07067732  0.52065645     0.90200
C713        C  0.68499579  0.04261699  0.45973196     0.90200
H714        H  0.72817406  0.40418659  0.47964579    -0.04000
O715        O  0.80380144  0.43722503  0.50811338    -0.73000
Mg716      Mg  0.66171597  0.48612987  0.52758728     1.58000
H717        H  0.82303937  0.44795755  0.57538948    -0.04000
C718        C  0.75779319  0.06011653  0.67899084     0.95200
O719        O  0.65444410  0.06811749  0.59221783    -0.80200
C720        C  0.62470859  0.05636256  0.57501911     0.95300
O721        O  0.88374502  0.03636194  0.51843320    -0.80200
Mg722      Mg  0.78595074  0.44167169  0.42853463     1.58200
O723        O  0.72896198  0.06100720  0.65280914    -0.78500
O724        O  0.71123055  0.45137172  0.33676283    -0.80200
C725        C  0.74896975  0.34224244  0.13996399     0.48000
H726        H  0.74898629  0.31431687  0.14012897    -0.01000
C727        C  0.74897268  0.40788381  0.13991670     0.48000
H728        H  0.74899148  0.43580975  0.14004216    -0.01000
C729        C  0.74681253  0.35788202  0.19077461    -0.14700
C730        C  0.78340667  0.35786891  0.11712966    -0.14500
C731        C  0.71665515  0.35785741  0.11212162    -0.14900
C732        C  0.74681356  0.39227936  0.19074902    -0.14800
C733        C  0.78340858  0.39223938  0.11710569    -0.14400
C734        C  0.71665697  0.39225255  0.11209660    -0.14700
O735        O  0.73018078  0.30049305  0.44975645    -0.85800
C736        C  0.68500368  0.20761089  0.45980494     0.90200
Mg737      Mg  0.78595360  0.30855568  0.42862179     1.58100
O738        O  0.70547928  0.24515730  0.57202318    -0.85500
O739        O  0.69459312  0.31197896  0.51163458    -0.72900
C740        C  0.88203509  0.19870282  0.55903347     0.95300
O741        O  0.74783117  0.23521480  0.38609817    -0.72700
O742        O  0.88374388  0.21386244  0.51851706    -0.80200
Mg743      Mg  0.69785118  0.26827288  0.40402221     1.58000
C744        C  0.75778381  0.19009214  0.67906375     0.95200
O745        O  0.64552987  0.29992848  0.41392087    -0.78500
H746        H  0.69970195  0.28315793  0.61877042    -0.03800
C747        C  0.78167028  0.17954462  0.52074443     0.90100
O748        O  0.80381028  0.31300086  0.50820100    -0.73000
O749        O  0.68535177  0.23833031  0.46634349    -0.85700
O750        O  0.72895306  0.18920405  0.65288105    -0.78500
C751        C  0.62470318  0.19385387  0.57507811     0.95300
C752        C  0.61749344  0.30149686  0.44141643     0.95200
Mg753      Mg  0.80167037  0.23191988  0.59641489     1.58000
O754        O  0.85399757  0.20027257  0.58652673    -0.78500
O755        O  0.75168792  0.26497403  0.61433592    -0.72700
O756        O  0.62370749  0.21971243  0.54786282    -0.78500
O757        O  0.71123159  0.29885680  0.33684774    -0.80300
O758        O  0.87581394  0.28047879  0.45256931    -0.78600
C759        C  0.71789412  0.26483514  0.60264060     0.89600
O760        O  0.81417071  0.26185812  0.53409026    -0.85700
O761        O  0.76934393  0.19969569  0.55068362    -0.85800
O762        O  0.80493303  0.18820794  0.48880689    -0.72900
Mg763      Mg  0.66171123  0.26409089  0.52766628     1.58000
O764        O  0.65443867  0.18209773  0.59227638    -0.80300
H765        H  0.72818500  0.34603533  0.47976421    -0.04000
O766        O  0.79404259  0.25502751  0.42841122    -0.85500
H767        H  0.79981541  0.21702502  0.38166459    -0.03800
H768        H  0.82304895  0.30226681  0.57547685    -0.04000
C769        C  0.78162497  0.23535021  0.39779456     0.89600
C770        C  0.71785564  0.32064364  0.47969768     0.90200
C771        C  0.81452408  0.29257734  0.54062786     0.90200
H772        H  0.77134031  0.15415483  0.52067994    -0.04000
O773        O  0.69571750  0.18718767  0.49223249    -0.73000
Mg774      Mg  0.83781321  0.23609604  0.47276945     1.58000
H775        H  0.67648321  0.19792098  0.42495412    -0.04000
C776        C  0.74173917  0.31009841  0.32137421     0.95200
O777        O  0.84508038  0.31809218  0.40815644    -0.80200
C778        C  0.87481614  0.30633979  0.42535819     0.95300
O779        O  0.61578226  0.28632776  0.48192473    -0.80200
Mg780      Mg  0.71356909  0.19163085  0.57181451     1.58200
O781        O  0.77056875  0.31098195  0.34755854    -0.78500
O782        O  0.78828899  0.20133776  0.66358837    -0.80200
C783        C  0.75062393  0.15788008  0.86047062     0.48000
H784        H  0.75060336  0.18580561  0.86034565    -0.01000
C785        C  0.75062828  0.09223780  0.86042567     0.48000
H786        H  0.75061149  0.06431216  0.86026301    -0.01000
C787        C  0.75277015  0.14227389  0.80963653    -0.14700
C788        C  0.78294389  0.14224898  0.88828518    -0.14500
C789        C  0.71619386  0.14223500  0.88329563    -0.14900
C790        C  0.75277265  0.10787664  0.80961295    -0.14800
C791        C  0.78294633  0.10785409  0.88826050    -0.14400
C792        C  0.71619620  0.10786492  0.88327201    -0.14700
C793        C  0.75602121  0.17639832  0.72721147    -0.10700
C794        C  0.75452916  0.16217039  0.76579410    -0.12300
C795        C  0.74502269  0.33801162  0.23463935    -0.10700
C796        C  0.74350938  0.32379142  0.27322649    -0.12300
C797        C  0.74502207  0.41218042  0.23458305    -0.10700
C798        C  0.74350682  0.42642173  0.27315291    -0.12300
C799        C  0.75602988  0.07379759  0.72714696    -0.10700
C800        C  0.75453577  0.08800762  0.76574380    -0.12300
C801        C  0.56169318  0.33775942  0.40971249    -0.10700
C802        C  0.58661344  0.32104390  0.42549513    -0.12300
C803        C  0.93558296  0.33802583  0.40036819    -0.10700
C804        C  0.90856224  0.32285352  0.41296586    -0.12300
C805        C  0.93558304  0.41219102  0.40032028    -0.10700
C806        C  0.90856070  0.42736767  0.41290062    -0.12300
C807        C  0.56169375  0.41245983  0.40966326    -0.10700
C808        C  0.58661398  0.42918261  0.42542731    -0.12300
C809        C  0.68562624  0.16212257  0.90037800    -0.10700
C810        C  0.65860277  0.17728177  0.91299816    -0.12300
C811        C  0.83663737  0.17909465  0.92553472    -0.10700
C812        C  0.81171945  0.16239324  0.90971365    -0.12300
C813        C  0.66294617  0.32097490  0.07499192    -0.10700
C814        C  0.68786610  0.33769843  0.09075685    -0.12300
C815        C  0.84099760  0.32278580  0.08751529    -0.10700
C816        C  0.81397664  0.33796448  0.10009600    -0.12300
C817        C  0.00605340  0.32374280  0.22726020    -0.10700
C818        C  0.00454013  0.33798428  0.26582997    -0.12300
C819        C  0.56393120  0.16218509  0.60009030    -0.10700
C820        C  0.59095393  0.17735042  0.58748314    -0.12300
C821        C  0.93783682  0.16245433  0.59076829    -0.10700
C822        C  0.91291899  0.17916621  0.57496996    -0.12300
C823        C  0.93783910  0.08775788  0.59071007    -0.10700
C824        C  0.91292119  0.07105409  0.57489339    -0.12300
C825        C  0.59095946  0.07286469  0.58742874    -0.10700
C826        C  0.56393583  0.08802573  0.60004378    -0.12300
C827        C  0.99353365  0.17634109  0.77328348    -0.10700
C828        C  0.49502820  0.16213545  0.73468296    -0.12300
C829        C  0.81172567  0.08769837  0.90965638    -0.10700
C830        C  0.83664465  0.07098842  0.92545504    -0.12300
C831        C  0.65860727  0.07279929  0.91292963    -0.10700
C832        C  0.68563100  0.08796415  0.90032685    -0.12300
C833        C  0.99353776  0.07374509  0.77320386    -0.10700
C834        C  0.99503106  0.08797366  0.73462205    -0.12300
C835        C  0.84100384  0.42730455  0.08745826    -0.10700
C836        C  0.81398227  0.41213072  0.10004993    -0.12300
C837        C  0.66294944  0.42911702  0.07492580    -0.10700
C838        C  0.68786915  0.41239980  0.09070560    -0.12300
C839        C  0.00454401  0.41215402  0.26578386    -0.10700
C840        C  0.00605946  0.42637807  0.22720021    -0.12300
O841        O  0.98022006  0.55045939  0.94973455    -0.85800
C842        C  0.93504023  0.95758023  0.95980332     0.90200
Mg843      Mg  0.53599387  0.55852146  0.92859817     1.58100
O844        O  0.95552324  0.99513661  0.07201543    -0.85500
O845        O  0.94463319  0.56195157  0.01161206    -0.72900
C846        C  0.63207042  0.94866546  0.05900598     0.95300
O847        O  0.99787186  0.98517690  0.88608843    -0.72700
O848        O  0.63378064  0.96383135  0.01849531    -0.80200
Mg849      Mg  0.94789125  0.51823360  0.90400914     1.58000
C850        C  0.00782865  0.94007245  0.17905390     0.95200
O851        O  0.89556581  0.54988271  0.91389744    -0.78500
H852        H  0.94975148  0.53314342  0.11875547    -0.03800
C853        C  0.53170984  0.92951578  0.02073804     0.90100
O854        O  0.55384913  0.56297203  0.00817765    -0.73000
O855        O  0.93539331  0.98829967  0.96633781    -0.85700
O856        O  0.97899874  0.93918720  0.15287066    -0.78500
C857        C  0.87474987  0.94382103  0.07507120     0.95300
C858        C  0.86752899  0.55145321  0.94139173     0.95200
Mg859      Mg  0.55171508  0.98189426  0.09640094     1.58000
O860        O  0.60403556  0.95023743  0.08650393    -0.78500
O861        O  0.50173604  0.51495394  0.11432168    -0.72700
O862        O  0.87375229  0.96968195  0.04785989    -0.78500
O863        O  0.96127023  0.54881133  0.83683152    -0.80300
O864        O  0.62585273  0.53044020  0.95255154    -0.78600
C865        C  0.96794175  0.51481677  0.10262767     0.89600
O866        O  0.56421327  0.51183116  0.03407448    -0.85700
O867        O  0.51938453  0.94967073  0.05067314    -0.85800
O868        O  0.55497067  0.93817697  0.98879702    -0.72900
Mg869      Mg  0.91175234  0.51406471  0.02765644     1.58000
O870        O  0.90448549  0.93207045  0.09227614    -0.80300
H871        H  0.97822718  0.59600121  0.97973410    -0.04000
O872        O  0.54408121  0.50499476  0.92839826    -0.85500
H873        H  0.54985779  0.96699108  0.88165447    -0.03800
H874        H  0.57308649  0.55224358  0.07545639    -0.04000
C875        C  0.53166553  0.98531568  0.89778331     0.89600
C876        C  0.96789563  0.57061230  0.97967255     0.90200
C877        C  0.56456352  0.54255106  0.04060771     0.90200
H878        H  0.52138249  0.90412402  0.02068070    -0.04000
O879        O  0.94575504  0.93715846  0.99223170    -0.73000
Mg880      Mg  0.58785049  0.98606432  0.97275481     1.58000
H881        H  0.92651486  0.94788892  0.92495518    -0.04000
C882        C  0.49177583  0.56005361  0.82135257     0.95200
O883        O  0.59512322  0.56805166  0.90813058    -0.80200
C884        C  0.62485789  0.55629663  0.92533259     0.95300
O885        O  0.86582107  0.53629511  0.98190916    -0.80200
Mg886      Mg  0.96361245  0.94160850  0.07180953     1.58200
O887        O  0.52060768  0.56094123  0.84753291    -0.78500
O888        O  0.53833561  0.95131502  0.16357965    -0.80200
C889        C  0.99893726  0.59226890  0.63994707     0.48000
H890        H  0.49895699  0.56434291  0.64006979    -0.01000
C891        C  0.99893486  0.65791101  0.63999822     0.48000
H892        H  0.99895232  0.68583668  0.64016364    -0.01000
C893        C  0.99679200  0.60787250  0.69078233    -0.14700
C894        C  0.53336772  0.60791401  0.61712306    -0.14500
C895        C  0.96661696  0.60790162  0.61213520    -0.14900
C896        C  0.49679085  0.64226968  0.69081007    -0.14800
C897        C  0.53336646  0.64228421  0.61714874    -0.14400
C898        C  0.96661561  0.64229670  0.61216255    -0.14700
O899        O  0.51938109  0.80041613  0.05075250    -0.85800
C900        C  0.56456579  0.70753412  0.04070053     0.90200
Mg901      Mg  0.96360742  0.80848072  0.07188170     1.58100
O902        O  0.54407436  0.74508196  0.92848765    -0.85500
O903        O  0.55496751  0.81190707  0.98887690    -0.72900
C904        C  0.86752427  0.69862378  0.94148007     0.95300
O905        O  0.50172990  0.73514240  0.11441486    -0.72700
O906        O  0.86581498  0.71378509  0.98199528    -0.80200
Mg907      Mg  0.55171142  0.76819789  0.09648623     1.58000
C908        C  0.99176888  0.69002011  0.82144135     0.95200
O909        O  0.60403490  0.79985081  0.08658168    -0.78500
H910        H  0.54984883  0.78308362  0.88174089    -0.03800
C911        C  0.96789577  0.67946852  0.97978132     0.90100
O912        O  0.94575588  0.81292121  0.99230264    -0.73000
O913        O  0.56421236  0.73825375  0.03416456    -0.85700
O914        O  0.52059936  0.68912932  0.84762471    -0.78500
C915        C  0.62485345  0.69378210  0.92541214     0.93700
C916        C  0.63206786  0.80142271  0.05907991     0.95200
Mg917      Mg  0.94788680  0.73183866  0.90410094     1.58000
O918        O  0.89556383  0.70018910  0.91399061    -0.78500
O919        O  0.99786422  0.76489623  0.88617595    -0.72700
O920        O  0.62584969  0.71964011  0.95262872    -0.78500
O921        O  0.53832837  0.79878896  0.16365311    -0.80300
O922        O  0.87374666  0.78040420  0.04793018    -0.78600
C923        C  0.53165784  0.76475930  0.89787099     0.89600
O924        O  0.93539047  0.76177710  0.96642341    -0.85700
O925        O  0.98021694  0.69961579  0.94983279    -0.85800
O926        O  0.94463131  0.68813327  0.01171619    -0.72900
Mg927      Mg  0.58784546  0.76401694  0.97283695     1.58000
O928        O  0.59511741  0.68202453  0.90821868    -0.80300
H929        H  0.52138388  0.84596278  0.02076326    -0.04000
O930        O  0.95551650  0.75495329  0.07210264    -0.85500
H931        H  0.94974563  0.71695363  0.11885477    -0.03800
H932        H  0.92651761  0.80218279  0.92502777    -0.04000
C933        C  0.96793558  0.73527778  0.10272095     0.89600
C934        C  0.53170815  0.82057056  0.02081864     0.90200
C935        C  0.93504037  0.79249562  0.95988017     0.90200
H936        H  0.97823216  0.65408092  0.97985693    -0.04000
O937        O  0.55385206  0.68711087  0.00827272    -0.73000
Mg938      Mg  0.91174651  0.73601965  0.02774416     1.58000
H939        H  0.57309177  0.69784369  0.07554939    -0.04000
C940        C  0.00782112  0.81003442  0.17912309     0.95200
O941        O  0.90447865  0.81802035  0.09233960    -0.80200
C942        C  0.87474371  0.80626789  0.07513550     0.95300
O943        O  0.63377625  0.78625522  0.01857012    -0.80200
Mg944      Mg  0.53599000  0.69155419  0.92869229     1.58200
O945        O  0.97899020  0.81091333  0.15294147    -0.78500
O946        O  0.96126311  0.70126111  0.83692160    -0.80200
C947        C  0.00059138  0.90791699  0.36045621     0.48000
H948        H  0.50057416  0.93584303  0.36029417    -0.01000
C949        C  0.00059068  0.84227564  0.36049693     0.48000
H950        H  0.00057262  0.81434969  0.36036876    -0.01000
C951        C  0.00275077  0.89228032  0.30964465    -0.14700
C952        C  0.53290566  0.89230138  0.38829778    -0.14500
C953        C  0.96615450  0.89228859  0.38328711    -0.14900
C954        C  0.50275007  0.85788294  0.30966616    -0.14800
C955        C  0.53290542  0.85790632  0.38831980    -0.14400
C956        C  0.96615421  0.85791823  0.38330881    -0.14700
O957        O  0.76934369  0.55052702  0.55060064    -0.85800
C958        C  0.81451784  0.95764757  0.54053961     0.90200
Mg959      Mg  0.71357118  0.55858777  0.57174261     1.58100
O960        O  0.79404196  0.99519883  0.42832338    -0.85500
O961        O  0.80492872  0.56201499  0.48871919    -0.72900
C962        C  0.61749265  0.94873301  0.44133965     0.95300
O963        O  0.75169693  0.98524262  0.61424919    -0.72700
O964        O  0.61578545  0.96389710  0.48185189    -0.80200
Mg965      Mg  0.80167438  0.51830155  0.59632764     1.58000
C966        C  0.74173807  0.94012720  0.32129182     0.95200
O967        O  0.85399686  0.54995331  0.58644024    -0.78500
H968        H  0.79981560  0.53320065  0.38157547    -0.03800
C969        C  0.71785034  0.92957901  0.47959511     0.90100
O970        O  0.69570917  0.56303757  0.49216332    -0.73000
O971        O  0.81416974  0.98836683  0.53400131    -0.85700
O972        O  0.77056850  0.93924594  0.34747423    -0.78500
C973        C  0.87481425  0.94388429  0.42528196     0.95300
C974        C  0.88203562  0.55152176  0.55894959     0.95200
Mg975      Mg  0.69784852  0.98195793  0.40393566     1.58000
O976        O  0.64552473  0.95030623  0.41383662    -0.78500
O977        O  0.74783051  0.51501332  0.38601126    -0.72700
O978        O  0.87581122  0.96974614  0.45249077    -0.78500
O979        O  0.78829872  0.54887582  0.66350931    -0.80300
O980        O  0.62371294  0.53050632  0.54779927    -0.78600
C981        C  0.78162461  0.51487637  0.39770652     0.89600
O982        O  0.68534944  0.51189681  0.46626320    -0.85700
O983        O  0.73017748  0.94973525  0.44966411    -0.85800
O984        O  0.69459223  0.93824031  0.51153949    -0.72900
Mg985      Mg  0.83781242  0.51412925  0.47268358     1.58000
O986        O  0.84507945  0.93213293  0.40807588    -0.80300
H987        H  0.77133009  0.59606500  0.52058711    -0.04000
O988        O  0.70548714  0.50506007  0.57193986    -0.85500
H989        H  0.69971228  0.96705554  0.61868121    -0.03800
H990        H  0.67646996  0.55230982  0.42488518    -0.04000
C991        C  0.71790328  0.98538053  0.60255395     0.89600
C992        C  0.78166507  0.57067733  0.52065647     0.90200
C993        C  0.68499578  0.54261688  0.45973200     0.90200
H994        H  0.72817443  0.90418582  0.47964586    -0.04000
O995        O  0.80380127  0.93722507  0.50811337    -0.73000
Mg996      Mg  0.66171596  0.98612991  0.52758728     1.58000
H997        H  0.82303929  0.94795756  0.57538908    -0.04000
C998        C  0.75779322  0.56011644  0.67899083     0.95200
O999        O  0.65444410  0.56811746  0.59221792    -0.80200
C1000       C  0.62470861  0.55636260  0.57501909     0.95300
O1001       O  0.88374487  0.53636186  0.51843325    -0.80200
Mg1002     Mg  0.78595073  0.94167165  0.42853463     1.58200
O1003       O  0.72896200  0.56100712  0.65280913    -0.78500
O1004       O  0.71123059  0.95137169  0.33676285    -0.80200
C1005       C  0.74896979  0.84224245  0.13996392     0.48000
H1006       H  0.74898636  0.81431693  0.14012886    -0.01000
C1007       C  0.74897266  0.90788385  0.13991674     0.48000
H1008       H  0.74899143  0.93580969  0.14004225    -0.01000
C1009       C  0.74681253  0.85788200  0.19077458    -0.14700
C1010       C  0.78340669  0.85786900  0.11712960    -0.14500
C1011       C  0.71665518  0.85785743  0.11212157    -0.14900
C1012       C  0.74681359  0.89227933  0.19074904    -0.14800
C1013       C  0.78340858  0.89223947  0.11710569    -0.14400
C1014       C  0.71665697  0.89225255  0.11209660    -0.14700
O1015       O  0.73018077  0.80049301  0.44975644    -0.85800
C1016       C  0.68500373  0.70761092  0.45980502     0.90200
Mg1017     Mg  0.78595362  0.80855562  0.42862181     1.58100
O1018       O  0.70547932  0.74515726  0.57202317    -0.85500
O1019       O  0.69459312  0.81197894  0.51163459    -0.72900
C1020       C  0.88203508  0.69870279  0.55903346     0.95300
O1021       O  0.74783121  0.73521472  0.38609817    -0.72700
O1022       O  0.88374392  0.71386235  0.51851701    -0.80200
Mg1023     Mg  0.69785120  0.76827282  0.40402221     1.58000
C1024       C  0.75778379  0.69009225  0.67906380     0.95200
O1025       O  0.64552987  0.79992839  0.41392087    -0.78500
H1026       H  0.69970147  0.78315841  0.61877089    -0.03800
C1027       C  0.78167034  0.67954463  0.52074438     0.90100
O1028       O  0.80381032  0.81300077  0.50820100    -0.73000
O1029       O  0.68535183  0.73833029  0.46634353    -0.85700
O1030       O  0.72895309  0.68920400  0.65288104    -0.78500
C1031       C  0.62470323  0.69385389  0.57507810     0.95300
C1032       C  0.61749342  0.80149676  0.44141641     0.95200
Mg1033     Mg  0.80167039  0.73191986  0.59641488     1.58000
O1034       O  0.85399759  0.70027268  0.58652676    -0.78500
O1035       O  0.75168794  0.76497395  0.61433592    -0.72700
O1036       O  0.62370753  0.71971242  0.54786274    -0.78500
O1037       O  0.71123157  0.79885677  0.33684772    -0.80300
O1038       O  0.87581396  0.78047865  0.45256907    -0.78600
C1039       C  0.71789427  0.76483496  0.60264050     0.89600
O1040       O  0.81417076  0.76185804  0.53409024    -0.85700
O1041       O  0.76934397  0.69969558  0.55068367    -0.85800
O1042       O  0.80493306  0.68820801  0.48880689    -0.72900
Mg1043     Mg  0.66171126  0.76409091  0.52766630     1.58000
O1044       O  0.65443871  0.68209779  0.59227643    -0.80300
H1045       H  0.72818462  0.84603491  0.47976401    -0.04000
O1046       O  0.79404263  0.75502743  0.42841120    -0.85500
H1047       H  0.79981545  0.71702493  0.38166459    -0.03800
H1048       H  0.82304899  0.80226672  0.57547685    -0.04000
C1049       C  0.78162501  0.73535012  0.39779455     0.89600
C1050       C  0.71785560  0.82064374  0.47969763     0.90200
C1051       C  0.81452413  0.79257726  0.54062785     0.90200
H1052       H  0.77134034  0.65415467  0.52067975    -0.04000
O1053       O  0.69571753  0.68718763  0.49223245    -0.73000
Mg1054     Mg  0.83781325  0.73609597  0.47276942     1.58000
H1055       H  0.67648315  0.69792089  0.42495372    -0.04000
C1056       C  0.74173912  0.81009851  0.32137425     0.95200
O1057       O  0.84508038  0.81809213  0.40815643    -0.80200
C1058       C  0.87481615  0.80633971  0.42535810     0.95300
O1059       O  0.61578226  0.78632769  0.48192474    -0.80200
Mg1060     Mg  0.71356912  0.69163078  0.57181451     1.58200
O1061       O  0.77056870  0.81098207  0.34755857    -0.78500
O1062       O  0.78828896  0.70133789  0.66358841    -0.80200
C1063       C  0.75062388  0.65788004  0.86047061     0.48000
H1064       H  0.75060335  0.68580555  0.86034562    -0.01000
C1065       C  0.75062829  0.59223775  0.86042567     0.48000
H1066       H  0.75061152  0.56431215  0.86026306    -0.01000
C1067       C  0.75277018  0.64227382  0.80963650    -0.14700
C1068       C  0.78294381  0.64224895  0.88828521    -0.14500
C1069       C  0.71619380  0.64223495  0.88329562    -0.14900
C1070       C  0.75277269  0.60787657  0.80961294    -0.14800
C1071       C  0.78294631  0.60785409  0.88826049    -0.14400
C1072       C  0.71619620  0.60786487  0.88327201    -0.14700
C1073       C  0.75602121  0.67639843  0.72721152    -0.10700
C1074       C  0.75452920  0.66217034  0.76579406    -0.12300
C1075       C  0.74502256  0.83801159  0.23463931    -0.10700
C1076       C  0.74350932  0.82379152  0.27322654    -0.12300
C1077       C  0.74502211  0.91218039  0.23458308    -0.10700
C1078       C  0.74350688  0.92642182  0.27315284    -0.12300
C1079       C  0.75602992  0.57379751  0.72714696    -0.10700
C1080       C  0.75453581  0.58800753  0.76574380    -0.12300
C1081       C  0.56169320  0.83775940  0.40971248    -0.10700
C1082       C  0.58661342  0.82104382  0.42549512    -0.12300
C1083       C  0.93558290  0.83802589  0.40036822    -0.10700
C1084       C  0.90856223  0.82285349  0.41296584    -0.12300
C1085       C  0.93558293  0.91219096  0.40032024    -0.10700
C1086       C  0.90856059  0.92736757  0.41290061    -0.12300
C1087       C  0.56169375  0.91245993  0.40966316    -0.10700
C1088       C  0.58661399  0.92918268  0.42542723    -0.12300
C1089       C  0.68562612  0.66212252  0.90037795    -0.10700
C1090       C  0.65860270  0.67728180  0.91299813    -0.12300
C1091       C  0.83663732  0.67909460  0.92553473    -0.10700
C1092       C  0.81171936  0.66239321  0.90971371    -0.12300
C1093       C  0.66294617  0.82097500  0.07499185    -0.10700
C1094       C  0.68786616  0.83769851  0.09075663    -0.12300
C1095       C  0.84099758  0.82278581  0.08751535    -0.10700
C1096       C  0.81397667  0.83796459  0.10009598    -0.12300
C1097       C  0.00605332  0.82374271  0.22726024    -0.10700
C1098       C  0.00454012  0.83798423  0.26582999    -0.12300
C1099       C  0.56393124  0.66218514  0.60009031    -0.10700
C1100       C  0.59095398  0.67735047  0.58748317    -0.12300
C1101       C  0.93783680  0.66245433  0.59076829    -0.10700
C1102       C  0.91291891  0.67916613  0.57496999    -0.12300
C1103       C  0.93783912  0.58775778  0.59071005    -0.10700
C1104       C  0.91292121  0.57105399  0.57489334    -0.12300
C1105       C  0.59095948  0.57286473  0.58742877    -0.10700
C1106       C  0.56393588  0.58802583  0.60004379    -0.12300
C1107       C  0.99353367  0.67634116  0.77328347    -0.10700
C1108       C  0.49502819  0.66213544  0.73468299    -0.12300
C1109       C  0.81172566  0.58769846  0.90965639    -0.10700
C1110       C  0.83664457  0.57098848  0.92545512    -0.12300
C1111       C  0.65860732  0.57279921  0.91292963    -0.10700
C1112       C  0.68563104  0.58796408  0.90032686    -0.12300
C1113       C  0.99353777  0.57374518  0.77320391    -0.10700
C1114       C  0.99503111  0.58797367  0.73462204    -0.12300
C1115       C  0.84100382  0.92730468  0.08745830    -0.10700
C1116       C  0.81398225  0.91213086  0.10004996    -0.12300
C1117       C  0.66294934  0.92911693  0.07492586    -0.10700
C1118       C  0.68786911  0.91239975  0.09070558    -0.12300
C1119       C  0.00454388  0.91215397  0.26578380    -0.10700
C1120       C  0.00605938  0.92637804  0.22720018    -0.12300
loop_ 
_geom_bond_atom_site_label_1 
_geom_bond_atom_site_label_2 
_geom_bond_distance 
_geom_bond_site_symmetry_2 
_ccdc_geom_bond_type 
O1           C36   1.236       .  S
O1           Mg9   2.149       .  S
O1         Mg563   2.136       .  S
C2           O15   1.236       .  S
C2           O39   1.270       .  A
C2           H41   1.081       .  S
Mg3          O32   2.151       .  S
Mg3         O561   2.136   1_455  S
Mg3          O47   2.307       .  S
Mg3          O43   2.257       .  S
Mg3          O14   2.296   1_556  S
O4          C305   1.237       .  S
O4          Mg46   2.151       .  S
O4         Mg309   2.144       .  S
O5           C36   1.270   1_554  A
O5          Mg29   2.294       .  S
C6            O8   1.272       .  A
C6           O20   1.273       .  A
C6          C277   1.435       .  S
O7          C595   1.271       .  A
O7         Mg289   2.299       .  S
O8          Mg40   2.273   1_554  S
Mg9         O295   2.141   1_545  S
Mg9          O23   2.270       .  S
Mg9          O11   2.300       .  S
Mg9         O287   2.299   1_545  S
C10          O16   1.274       .  A
C10         O608   1.271       .  A
C10         C280   1.437       .  S
O11          C18   1.273       .  A
H12          C25   1.081       .  S
C13          O27   1.236       .  S
C13          O28   1.270   1_554  A
C13          H38   1.079       .  S
O14          C37   1.270       .  A
O15        Mg289   2.141       .  S
O15        Mg309   2.158   1_556  S
O16         Mg46   2.307       .  S
C17          O30   1.270       .  A
C17          O22   1.275       .  A
C17         C275   1.434       .  S
C18          O45   1.272       .  A
C18         C270   1.435       .  S
Mg19         O27   2.149       .  S
Mg19        O306   2.141       .  S
Mg19         O20   2.300       .  S
Mg19         O48   2.270       .  S
Mg19        O301   2.299       .  S
O21         C585   1.271   1_455  A
O21        Mg299   2.299   1_545  S
O22        Mg309   2.312       .  S
O23         C602   1.271       .  A
O24          C44   1.275       .  A
O24        Mg320   2.312   1_545  S
C25         O284   1.237   1_545  S
C25         O581   1.271       .  A
O26          C37   1.236       .  S
O26        Mg299   2.141   1_545  S
O26        Mg320   2.158   1_544  S
O27        Mg606   2.136   1_455  S
O28         Mg40   2.294       .  S
Mg29        O284   2.144   1_545  S
Mg29        O295   2.158   1_544  S
Mg29         O45   2.273   1_554  S
Mg29        O302   2.312   1_545  S
O30         Mg46   2.257       .  S
H31          C36   1.078       .  S
O32         C315   1.237   1_545  S
O32        Mg320   2.144   1_545  S
H33          C35   1.081       .  S
H34          C37   1.081       .  S
C35         O312   1.237       .  S
C35         O567   1.271   1_455  A
O39         Mg46   2.296   1_556  S
Mg40        O306   2.158   1_556  S
Mg40        O312   2.144       .  S
Mg40        O304   2.312       .  S
C42          O47   1.274   1_655  A
C42         O583   1.271       .  A
C42         C833   1.437       .  S
O43          C44   1.270       .  A
C44         C271   1.434       .  S
Mg46        O587   2.136       .  S
O48         C570   1.271       .  A
C49          C55   1.535       .  S
C49          C53   1.536       .  S
C49         C614   1.535       .  S
C49         H610   1.112       .  S
H50         C609   1.112       .  S
C51          C58   1.535       .  S
C51         C617   1.535       .  S
C51         C616   1.536       .  S
C51          H52   1.112       .  S
C53         C274   1.447       .  S
C53         C616   1.369       .  D
C54         C609   1.535   1_455  S
C54         C266   1.445       .  S
C54          C57   1.368       .  D
C55         C263   1.445       .  S
C55          C58   1.369       .  D
C56         C611   1.536       .  S
C56         C268   1.447       .  S
C56         C613   1.369       .  D
C57         C611   1.535   1_455  S
C57         C259   1.445       .  S
C58         C261   1.445       .  S
O59          C94   1.236       .  S
O59         Mg67   2.149       .  S
O59        Mg621   2.136   1_455  S
C60          O73   1.236       .  S
C60          O97   1.270       .  A
C60          H99   1.081       .  S
Mg61         O90   2.151       .  S
Mg61        O619   2.136       .  S
Mg61        O105   2.307       .  S
Mg61        O101   2.257       .  S
Mg61         O72   2.296   1_554  S
O62          C83   1.237       .  S
O62        Mg104   2.151       .  S
O62         Mg87   2.144       .  S
O63          C94   1.270   1_556  A
O63         Mg87   2.294       .  S
C64          O66   1.272       .  A
C64          O78   1.273       .  A
C64         C251   1.435       .  S
O65         C653   1.271   1_455  A
O65         Mg67   2.299       .  S
O66         Mg98   2.273   1_556  S
Mg67         O73   2.141       .  S
Mg67         O81   2.270       .  S
Mg67         O69   2.300       .  S
C68         O106   1.271       .  A
C68         O634   1.274       .  A
C68         C267   1.437       .  S
O69          C76   1.273       .  A
H70          C83   1.081       .  S
C71          O85   1.236       .  S
C71          O86   1.270   1_556  A
C71          H96   1.078       .  S
O72          C95   1.270       .  A
O73         Mg87   2.158   1_554  S
O74         C628   1.274   1_455  A
O74        Mg104   2.307       .  S
C75          O88   1.270       .  A
C75          O80   1.275       .  A
C75         C250   1.434       .  S
C76         O103   1.272       .  A
C76         C253   1.435       .  S
Mg77         O84   2.141       .  S
Mg77         O85   2.149       .  S
Mg77         O78   2.299       .  S
Mg77         O79   2.299       .  S
Mg77        O106   2.270       .  S
O79         C643   1.271       .  A
O80         Mg87   2.312       .  S
O81         C660   1.271       .  A
O82         C102   1.275       .  A
O82         Mg98   2.312       .  S
C83         O639   1.271   1_455  A
O84          C95   1.236       .  S
O84         Mg98   2.158   1_556  S
O85        Mg664   2.136       .  S
O86         Mg98   2.294       .  S
Mg87        O103   2.273   1_556  S
O88        Mg104   2.257       .  S
H89          C94   1.079       .  S
O90          C93   1.237       .  S
O90         Mg98   2.144       .  S
H91          C93   1.081       .  S
H92          C95   1.081       .  S
C93         O625   1.271       .  A
O97        Mg104   2.296   1_554  S
C100        O105   1.274       .  A
C100        O641   1.271       .  A
C100        C257   1.437       .  S
O101        C102   1.270       .  A
C102        C255   1.434       .  S
Mg104       O645   2.136   1_455  S
C107        C113   1.535       .  S
C107        C111   1.536       .  S
C107        C672   1.535       .  S
C107        H668   1.112       .  S
H108        C667   1.112       .  S
C109        C116   1.535       .  S
C109        C675   1.535       .  S
C109        C674   1.536       .  S
C109        H110   1.112       .  S
C111        C279   1.447       .  S
C111        C674   1.369       .  D
C112        C667   1.535       .  S
C112        C247   1.445       .  S
C112        C115   1.369       .  D
C113        C245   1.445       .  S
C113        C116   1.368       .  D
C114        C669   1.536       .  S
C114        C818   1.447       .  S
C114        C671   1.369       .  D
C115        C669   1.535       .  S
C115        C241   1.445       .  S
C116        C243   1.445       .  S
O117        C152   1.236       .  S
O117       Mg119   2.136       .  S
O117       Mg125   2.149       .  S
C118        O131   1.236       .  S
C118        O155   1.270       .  A
C118        H157   1.081       .  S
Mg119       O148   2.151       .  S
Mg119       O163   2.307       .  S
Mg119       O159   2.257       .  S
Mg119       O130   2.296       .  S
O120        C421   1.237       .  S
O120       Mg162   2.151       .  S
O120       Mg425   2.144       .  S
O121        C152   1.270       .  A
O121       Mg145   2.294       .  S
C122        O124   1.272       .  A
C122        O136   1.273       .  A
C122        C248   1.435       .  S
O123        C151   1.271       .  A
O123       Mg405   2.299       .  S
O124       Mg156   2.273       .  S
Mg125       O411   2.141   1_545  S
Mg125       O139   2.270       .  S
Mg125       O127   2.300       .  S
Mg125       O403   2.299   1_545  S
C126        O164   1.271       .  A
C126        O132   1.274       .  A
C126        C238   1.437       .  S
O127        C134   1.273       .  A
H128        C141   1.081       .  S
C129        O143   1.236       .  S
C129        O144   1.270       .  A
C129        H154   1.078       .  S
O130        C153   1.270       .  A
O131       Mg405   2.141       .  S
O131       Mg425   2.158       .  S
O132       Mg162   2.307       .  S
C133        O146   1.270       .  A
C133        O138   1.275       .  A
C133        C246   1.434       .  S
C134        O161   1.272       .  A
C134        C264   1.435       .  S
Mg135       O143   2.149       .  S
Mg135       O422   2.141       .  S
Mg135       O136   2.300       .  S
Mg135       O164   2.271       .  S
Mg135       O417   2.299       .  S
O137        C141   1.271       .  A
O137       Mg415   2.299   1_545  S
O138       Mg425   2.312       .  S
O139        C158   1.271       .  A
O140        C160   1.275       .  A
O140       Mg436   2.312   1_545  S
C141        O400   1.237   1_545  S
O142        C153   1.236       .  S
O142       Mg415   2.141   1_545  S
O142       Mg436   2.158   1_545  S
O143       Mg162   2.136       .  S
O144       Mg156   2.294       .  S
Mg145       O400   2.144   1_545  S
Mg145       O411   2.158   1_545  S
Mg145       O161   2.273       .  S
Mg145       O418   2.312   1_545  S
O146       Mg162   2.257       .  S
H147        C152   1.078       .  S
O148        C431   1.237   1_545  S
O148       Mg436   2.144   1_545  S
H149        C151   1.081       .  S
H150        C153   1.081       .  S
C151        O428   1.237       .  S
O155       Mg162   2.296       .  S
Mg156       O422   2.158       .  S
Mg156       O428   2.144       .  S
Mg156       O420   2.312       .  S
C158        O163   1.274       .  A
C158        C239   1.437       .  S
O159        C160   1.270       .  A
C160        C265   1.434       .  S
C165        C171   1.535       .  S
C165        C170   1.535       .  S
C165        C169   1.536       .  S
C165        H166   1.112       .  S
C167        C173   1.535       .  S
C167        C172   1.536       .  S
C167        C174   1.535       .  S
C167        H168   1.112       .  S
C169        C235   1.447       .  S
C169        C172   1.369       .  D
C170        C256   1.445       .  S
C170        C173   1.368       .  D
C171        C254   1.445       .  S
C171        C174   1.369       .  D
C172        C237   1.447       .  S
C173        C276   1.445       .  S
C174        C278   1.445       .  S
O175        C210   1.236       .  S
O175       Mg177   2.136       .  S
O175       Mg183   2.149       .  S
C176        O189   1.236       .  S
C176        O213   1.270       .  A
C176        H215   1.081       .  S
Mg177       O206   2.151       .  S
Mg177       O221   2.307       .  S
Mg177       O217   2.257       .  S
Mg177       O188   2.296       .  S
O178        C199   1.237       .  S
O178       Mg220   2.151       .  S
O178       Mg203   2.144       .  S
O179        C210   1.270       .  A
O179       Mg203   2.294       .  S
C180        O182   1.272       .  A
C180        O194   1.273       .  A
C180        C262   1.435       .  S
O181        C209   1.271       .  A
O181       Mg183   2.299       .  S
O182       Mg214   2.273       .  S
Mg183       O189   2.141       .  S
Mg183       O197   2.270       .  S
Mg183       O185   2.300       .  S
C184        O222   1.271       .  A
C184        O190   1.274       .  A
C184        C233   1.437       .  S
O185        C192   1.273       .  A
H186        C199   1.081       .  S
C187        O201   1.236       .  S
C187        O202   1.270       .  A
C187        H212   1.078       .  S
O188        C211   1.270       .  A
O189       Mg203   2.158       .  S
O190       Mg220   2.307       .  S
C191        O204   1.270       .  A
C191        O196   1.275       .  A
C191        C260   1.434       .  S
C192        O219   1.272       .  A
C192        C242   1.435       .  S
Mg193       O200   2.141       .  S
Mg193       O201   2.149       .  S
Mg193       O194   2.300       .  S
Mg193       O195   2.299       .  S
Mg193       O222   2.270       .  S
O195        C199   1.271       .  A
O196       Mg203   2.312       .  S
O197        C216   1.271       .  A
O198        C218   1.275       .  A
O198       Mg214   2.312       .  S
O200        C211   1.236       .  S
O200       Mg214   2.158       .  S
O201       Mg220   2.136       .  S
O202       Mg214   2.294       .  S
Mg203       O219   2.273       .  S
O204       Mg220   2.257       .  S
H205        C210   1.079       .  S
O206        C209   1.237       .  S
O206       Mg214   2.144       .  S
H207        C209   1.081       .  S
H208        C211   1.081       .  S
O213       Mg220   2.296       .  S
C216        O221   1.274       .  A
C216        C236   1.437       .  S
O217        C218   1.270       .  A
C218        C244   1.434       .  S
C223        C229   1.535       .  S
C223        C228   1.535       .  S
C223        C227   1.536       .  S
C223        H224   1.112       .  S
C225        C231   1.535       .  S
C225        C230   1.536       .  S
C225        C232   1.535       .  S
C225        H226   1.112       .  S
C227        C234   1.447       .  S
C227        C230   1.369       .  D
C228        C252   1.445       .  S
C228        C231   1.369       .  D
C229        C249   1.445       .  S
C229        C232   1.368       .  D
C230        C240   1.447       .  S
C231        C269   1.445       .  S
C232        C272   1.445       .  S
C233        C234   1.207       .  T
C235        C236   1.207       .  T
C237        C238   1.207       .  T
C239        C240   1.207       .  T
C241        C242   1.206       .  T
C243        C244   1.205       .  T
C245        C246   1.205       .  T
C247        C248   1.206       .  T
C249        C250   1.205       .  T
C251        C252   1.206       .  T
C253        C254   1.206       .  T
C255        C256   1.205       .  T
C257        C258   1.207       .  T
C258        C674   1.447       .  S
C259        C260   1.205       .  T
C261        C262   1.206       .  T
C263        C264   1.206       .  T
C265        C266   1.205       .  T
C267        C828   1.207       .  T
C268        C827   1.207       .  T
C269        C270   1.206       .  T
C271        C272   1.205       .  T
C273        C602   1.437       .  S
C273        C274   1.207       .  T
C275        C276   1.205       .  T
C277        C278   1.206       .  T
C279        C280   1.207       .  T
O281        C316   1.236       .  S
O281       Mg843   2.136       .  S
O281       Mg289   2.149       .  S
C282        O295   1.236       .  S
C282        O319   1.270       .  A
C282        H321   1.081       .  S
Mg283       O841   2.136   1_455  S
Mg283       O312   2.151       .  S
Mg283       O327   2.307       .  S
Mg283       O323   2.257       .  S
Mg283       O294   2.296   1_556  S
O284       Mg326   2.151       .  S
O285        C316   1.270   1_554  A
O285       Mg309   2.294       .  S
C286        O288   1.272       .  A
C286        O300   1.273       .  A
C286        C557   1.435       .  S
O287        C875   1.271       .  A
O288       Mg320   2.273   1_554  S
Mg289       O303   2.270       .  S
Mg289       O291   2.300       .  S
C290        O888   1.271       .  A
C290        O296   1.274       .  A
C290        C560   1.437       .  S
O291        C298   1.273       .  A
H292        C305   1.081       .  S
C293        O307   1.236       .  S
C293        O308   1.270   1_554  A
C293        H318   1.079       .  S
O294        C317   1.270       .  A
O296       Mg326   2.307       .  S
C297        O310   1.270       .  A
C297        O302   1.275       .  A
C297        C555   1.434       .  S
C298        O325   1.272       .  A
C298        C550   1.435       .  S
Mg299       O307   2.149       .  S
Mg299       O300   2.300       .  S
Mg299       O328   2.270       .  S
O301        C865   1.271   1_455  A
O303        C882   1.271       .  A
O304        C324   1.275       .  A
C305        O861   1.271       .  A
O306        C317   1.236       .  S
O307       Mg886   2.136   1_455  S
O308       Mg320   2.294       .  S
Mg309       O325   2.273   1_554  S
O310       Mg326   2.257       .  S
H311        C316   1.078       .  S
H313        C315   1.081       .  S
H314        C317   1.081       .  S
C315        O847   1.271   1_455  A
O319       Mg326   2.296   1_556  S
C322        O863   1.271       .  A
C322        O327   1.274   1_655  A
C322       C1113   1.437       .  S
O323        C324   1.270       .  A
C324        C551   1.434       .  S
Mg326       O867   2.136       .  S
O328        C850   1.271       .  A
C329        C335   1.535       .  S
C329        C894   1.535       .  S
C329        C333   1.536       .  S
C329        H890   1.112       .  S
H330        C889   1.112       .  S
C331        C897   1.535       .  S
C331        C896   1.536       .  S
C331        C338   1.535       .  S
C331        H332   1.112       .  S
C333        C554   1.447       .  S
C333        C896   1.369       .  D
C334        C889   1.535   1_455  S
C334        C546   1.445       .  S
C334        C337   1.368       .  D
C335        C543   1.445       .  S
C335        C338   1.369       .  D
C336        C891   1.536       .  S
C336        C548   1.447       .  S
C336        C893   1.369       .  D
C337        C891   1.535   1_455  S
C337        C539   1.445       .  S
C338        C541   1.445       .  S
O339        C374   1.236       .  S
O339       Mg901   2.136   1_455  S
O339       Mg347   2.149       .  S
C340        O353   1.236       .  S
C340        O377   1.270       .  A
C340        H379   1.081       .  S
Mg341       O899   2.136       .  S
Mg341       O370   2.151       .  S
Mg341       O385   2.307       .  S
Mg341       O381   2.257       .  S
Mg341       O352   2.296   1_554  S
O342        C363   1.237       .  S
O342       Mg384   2.151       .  S
O342       Mg367   2.144       .  S
O343        C374   1.270   1_556  A
O343       Mg367   2.294       .  S
C344        O346   1.272       .  A
C344        O358   1.273       .  A
C344        C531   1.435       .  S
O345        C933   1.271   1_455  A
O345       Mg347   2.299       .  S
O346       Mg378   2.273   1_556  S
Mg347       O353   2.141       .  S
Mg347       O361   2.270       .  S
Mg347       O349   2.300       .  S
C348        O386   1.271       .  A
C348        O914   1.274       .  A
C348        C547   1.437       .  S
O349        C356   1.273       .  A
H350        C363   1.081       .  S
C351        O365   1.236       .  S
C351        O366   1.270   1_556  A
C351        H376   1.078       .  S
O352        C375   1.270       .  A
O353       Mg367   2.158   1_554  S
O354        C908   1.274   1_455  A
O354       Mg384   2.307       .  S
C355        O368   1.270       .  A
C355        O360   1.275       .  A
C355        C530   1.434       .  S
C356        O383   1.272       .  A
C356        C533   1.435       .  S
Mg357       O364   2.141       .  S
Mg357       O365   2.149       .  S
Mg357       O358   2.299       .  S
Mg357       O359   2.299       .  S
Mg357       O386   2.270       .  S
O359        C923   1.271       .  A
O360       Mg367   2.312       .  S
O361        C940   1.271       .  A
O362        C382   1.275       .  A
O362       Mg378   2.312       .  S
C363        O919   1.271   1_455  A
O364        C375   1.236       .  S
O364       Mg378   2.158   1_556  S
O365       Mg944   2.136       .  S
O366       Mg378   2.294       .  S
Mg367       O383   2.273   1_556  S
O368       Mg384   2.257       .  S
H369        C374   1.078       .  S
O370        C373   1.237       .  S
O370       Mg378   2.144       .  S
H371        C373   1.081       .  S
H372        C375   1.081       .  S
C373        O905   1.271       .  A
O377       Mg384   2.296   1_554  S
C380        O921   1.271       .  A
C380        O385   1.274       .  A
C380        C537   1.437       .  S
O381        C382   1.270       .  A
C382        C535   1.434       .  S
Mg384       O925   2.136   1_455  S
C387        C393   1.535       .  S
C387        C952   1.535       .  S
C387        C391   1.536       .  S
C387        H948   1.112       .  S
H388        C947   1.112       .  S
C389        C955   1.535       .  S
C389        C954   1.536       .  S
C389        C396   1.535       .  S
C389        H390   1.112       .  S
C391        C559   1.447       .  S
C391        C954   1.369       .  D
C392        C947   1.535       .  S
C392        C527   1.445       .  S
C392        C395   1.369       .  D
C393        C525   1.445       .  S
C393        C396   1.368       .  D
C394        C949   1.536       .  S
C394       C1098   1.447       .  S
C394        C951   1.369       .  D
C395        C949   1.535       .  S
C395        C521   1.445       .  S
C396        C523   1.445       .  S
O397        C432   1.236       .  S
O397       Mg399   2.136       .  S
O397       Mg405   2.149       .  S
C398        O411   1.236       .  S
C398        O435   1.270       .  A
C398        H437   1.081       .  S
Mg399       O428   2.151       .  S
Mg399       O443   2.307       .  S
Mg399       O439   2.257       .  S
Mg399       O410   2.296       .  S
O400       Mg442   2.151       .  S
O401        C432   1.270       .  A
O401       Mg425   2.294       .  S
C402        O404   1.272       .  A
C402        O416   1.273       .  A
C402        C528   1.435       .  S
O403        C431   1.271       .  A
O404       Mg436   2.273       .  S
Mg405       O419   2.270       .  S
Mg405       O407   2.300       .  S
C406        O444   1.271       .  A
C406        O412   1.274       .  A
C406        C518   1.437       .  S
O407        C414   1.273       .  A
H408        C421   1.081       .  S
C409        O423   1.236       .  S
C409        O424   1.270       .  A
C409        H434   1.079       .  S
O410        C433   1.270       .  A
O412       Mg442   2.307       .  S
C413        O426   1.270       .  A
C413        O418   1.275       .  A
C413        C526   1.434       .  S
C414        O441   1.272       .  A
C414        C544   1.435       .  S
Mg415       O423   2.149       .  S
Mg415       O416   2.300       .  S
Mg415       O444   2.271       .  S
O417        C421   1.271       .  A
O419        C438   1.271       .  A
O420        C440   1.275       .  A
O422        C433   1.236       .  S
O423       Mg442   2.136       .  S
O424       Mg436   2.294       .  S
Mg425       O441   2.273       .  S
O426       Mg442   2.257       .  S
H427        C432   1.078       .  S
H429        C431   1.081       .  S
H430        C433   1.081       .  S
O435       Mg442   2.296       .  S
C438        O443   1.274       .  A
C438        C519   1.437       .  S
O439        C440   1.270       .  A
C440        C545   1.434       .  S
C445        C451   1.535       .  S
C445        C450   1.535       .  S
C445        C449   1.536       .  S
C445        H446   1.112       .  S
C447        C453   1.535       .  S
C447        C452   1.536       .  S
C447        C454   1.535       .  S
C447        H448   1.112       .  S
C449        C515   1.447       .  S
C449        C452   1.369       .  D
C450        C536   1.445       .  S
C450        C453   1.368       .  D
C451        C534   1.445       .  S
C451        C454   1.369       .  D
C452        C517   1.447       .  S
C453        C556   1.445       .  S
C454        C558   1.445       .  S
O455        C490   1.236       .  S
O455       Mg457   2.136       .  S
O455       Mg463   2.149       .  S
C456        O469   1.236       .  S
C456        O493   1.270       .  A
C456        H495   1.081       .  S
Mg457       O486   2.151       .  S
Mg457       O501   2.307       .  S
Mg457       O497   2.257       .  S
Mg457       O468   2.296       .  S
O458        C479   1.237       .  S
O458       Mg500   2.151       .  S
O458       Mg483   2.144       .  S
O459        C490   1.270       .  A
O459       Mg483   2.294       .  S
C460        O462   1.272       .  A
C460        O474   1.273       .  A
C460        C542   1.435       .  S
O461        C489   1.271       .  A
O461       Mg463   2.299       .  S
O462       Mg494   2.273       .  S
Mg463       O469   2.141       .  S
Mg463       O477   2.270       .  S
Mg463       O465   2.300       .  S
C464        O502   1.271       .  A
C464        O470   1.274       .  A
C464        C513   1.437       .  S
O465        C472   1.273       .  A
H466        C479   1.081       .  S
C467        O481   1.236       .  S
C467        O482   1.270       .  A
C467        H492   1.078       .  S
O468        C491   1.270       .  A
O469       Mg483   2.158       .  S
O470       Mg500   2.307       .  S
C471        O484   1.270       .  A
C471        O476   1.275       .  A
C471        C540   1.434       .  S
C472        O499   1.272       .  A
C472        C522   1.435       .  S
Mg473       O480   2.141       .  S
Mg473       O481   2.149       .  S
Mg473       O474   2.300       .  S
Mg473       O475   2.299       .  S
Mg473       O502   2.270       .  S
O475        C479   1.271       .  A
O476       Mg483   2.312       .  S
O477        C496   1.271       .  A
O478        C498   1.275       .  A
O478       Mg494   2.312       .  S
O480        C491   1.236       .  S
O480       Mg494   2.158       .  S
O481       Mg500   2.136       .  S
O482       Mg494   2.294       .  S
Mg483       O499   2.273       .  S
O484       Mg500   2.257       .  S
H485        C490   1.079       .  S
O486        C489   1.237       .  S
O486       Mg494   2.144       .  S
H487        C489   1.081       .  S
H488        C491   1.081       .  S
O493       Mg500   2.296       .  S
C496        O501   1.274       .  A
C496        C516   1.437       .  S
O497        C498   1.270       .  A
C498        C524   1.434       .  S
C503        C509   1.535       .  S
C503        C508   1.535       .  S
C503        C507   1.536       .  S
C503        H504   1.112       .  S
C505        C511   1.535       .  S
C505        C510   1.536       .  S
C505        C512   1.535       .  S
C505        H506   1.112       .  S
C507        C514   1.447       .  S
C507        C510   1.369       .  D
C508        C532   1.445       .  S
C508        C511   1.369       .  D
C509        C529   1.445       .  S
C509        C512   1.368       .  D
C510        C520   1.447       .  S
C511        C549   1.445       .  S
C512        C552   1.445       .  S
C513        C514   1.207       .  T
C515        C516   1.207       .  T
C517        C518   1.207       .  T
C519        C520   1.207       .  T
C521        C522   1.206       .  T
C523        C524   1.205       .  T
C525        C526   1.205       .  T
C527        C528   1.206       .  T
C529        C530   1.205       .  T
C531        C532   1.206       .  T
C533        C534   1.206       .  T
C535        C536   1.205       .  T
C537        C538   1.207       .  T
C538        C954   1.447       .  S
C539        C540   1.205       .  T
C541        C542   1.206       .  T
C543        C544   1.206       .  T
C545        C546   1.205       .  T
C547       C1108   1.207       .  T
C548       C1107   1.207       .  T
C549        C550   1.206       .  T
C551        C552   1.205       .  T
C553        C882   1.437       .  S
C553        C554   1.207       .  T
C555        C556   1.205       .  T
C557        C558   1.206       .  T
C559        C560   1.207       .  T
O561        C596   1.236       .  S
O561       Mg569   2.149       .  S
C562        O575   1.236       .  S
C562        O599   1.270       .  A
C562        H601   1.081       .  S
Mg563       O592   2.151       .  S
Mg563       O607   2.307       .  S
Mg563       O603   2.257       .  S
Mg563       O574   2.296   1_556  S
O564        C865   1.237       .  S
O564       Mg606   2.151       .  S
O564       Mg869   2.144       .  S
O565        C596   1.270   1_554  A
O565       Mg589   2.294       .  S
C566        O568   1.272       .  A
C566        O580   1.273       .  A
C566        C837   1.435       .  S
O567       Mg849   2.299       .  S
O568       Mg600   2.273   1_554  S
Mg569       O855   2.141   1_545  S
Mg569       O847   2.299   1_545  S
Mg569       O583   2.270       .  S
Mg569       O571   2.300       .  S
C570        O576   1.274   1_455  A
C570        C840   1.437       .  S
O571        C578   1.273       .  A
H572        C585   1.081       .  S
C573        O587   1.236       .  S
C573        O588   1.270   1_554  A
C573        H598   1.079       .  S
O574        C597   1.270       .  A
O575       Mg849   2.141       .  S
O575       Mg869   2.158   1_556  S
O576       Mg606   2.307       .  S
C577        O590   1.270       .  A
C577        O582   1.275       .  A
C577        C835   1.434       .  S
C578        O605   1.272       .  A
C578        C830   1.435       .  S
Mg579       O866   2.141       .  S
Mg579       O587   2.149       .  S
Mg579       O580   2.300       .  S
Mg579       O861   2.299       .  S
Mg579       O608   2.270       .  S
O581       Mg859   2.299   1_545  S
O582       Mg869   2.312       .  S
O584        C604   1.275       .  A
O584       Mg880   2.312   1_545  S
C585        O844   1.237   1_545  S
O586        C597   1.236       .  S
O586       Mg859   2.141   1_545  S
O586       Mg880   2.158   1_544  S
O588       Mg600   2.294       .  S
Mg589       O844   2.144   1_545  S
Mg589       O855   2.158   1_544  S
Mg589       O862   2.312   1_545  S
Mg589       O605   2.273   1_554  S
O590       Mg606   2.257       .  S
H591        C596   1.078       .  S
O592        C875   1.237   1_545  S
O592       Mg880   2.144   1_545  S
H593        C595   1.081       .  S
H594        C597   1.081       .  S
C595        O872   1.237       .  S
O599       Mg606   2.296   1_556  S
Mg600       O866   2.158   1_556  S
Mg600       O872   2.144       .  S
Mg600       O864   2.312       .  S
C602        O607   1.274       .  A
O603        C604   1.270       .  A
C604        C831   1.434       .  S
C609        C615   1.535       .  S
C609        C613   1.536       .  S
C611        C618   1.535       .  S
C611        H612   1.112       .  S
C613        C834   1.447       .  S
C614        C826   1.445       .  S
C614        C617   1.368       .  D
C615        C823   1.445       .  S
C615        C618   1.369       .  D
C616        C828   1.447       .  S
C617        C819   1.445       .  S
C618        C821   1.445       .  S
O619        C654   1.236       .  S
O619       Mg627   2.149       .  S
C620        O633   1.236       .  S
C620        O657   1.270       .  A
C620        H659   1.081       .  S
Mg621       O650   2.151       .  S
Mg621       O665   2.307       .  S
Mg621       O661   2.257       .  S
Mg621       O632   2.296   1_554  S
O622        C643   1.237       .  S
O622       Mg664   2.151       .  S
O622       Mg647   2.144       .  S
O623        C654   1.270   1_556  A
O623       Mg647   2.294       .  S
C624        O626   1.272       .  A
C624        O638   1.273       .  A
C624        C811   1.435       .  S
O625       Mg627   2.299       .  S
O626       Mg658   2.273   1_556  S
Mg627       O633   2.141       .  S
Mg627       O641   2.270       .  S
Mg627       O629   2.300       .  S
C628        O666   1.271       .  A
C628        C827   1.437       .  S
O629        C636   1.273       .  A
H630        C643   1.081       .  S
C631        O645   1.236       .  S
C631        O646   1.270   1_556  A
C631        H656   1.078       .  S
O632        C655   1.270       .  A
O633       Mg647   2.158   1_554  S
O634       Mg664   2.307       .  S
C635        O648   1.270       .  A
C635        O640   1.275       .  A
C635        C810   1.434       .  S
C636        O663   1.272       .  A
C636        C813   1.435       .  S
Mg637       O644   2.141       .  S
Mg637       O645   2.149       .  S
Mg637       O638   2.299       .  S
Mg637       O639   2.299       .  S
Mg637       O666   2.270       .  S
O640       Mg647   2.312       .  S
O642        C662   1.275       .  A
O642       Mg658   2.312       .  S
O644        C655   1.236       .  S
O644       Mg658   2.158   1_556  S
O646       Mg658   2.294       .  S
Mg647       O663   2.273   1_556  S
O648       Mg664   2.257       .  S
H649        C654   1.079       .  S
O650        C653   1.237       .  S
O650       Mg658   2.144       .  S
H651        C653   1.081       .  S
H652        C655   1.081       .  S
O657       Mg664   2.296   1_554  S
C660        O665   1.274   1_455  A
C660        C817   1.437       .  S
O661        C662   1.270       .  A
C662        C815   1.434       .  S
C667        C673   1.535   1_455  S
C667        C671   1.536       .  S
C669        C676   1.535   1_455  S
C669        H670   1.112       .  S
C671        C839   1.447       .  S
C672        C807   1.445       .  S
C672        C675   1.369       .  D
C673        C805   1.445       .  S
C673        C676   1.368       .  D
C675        C801   1.445       .  S
C676        C803   1.445       .  S
O677        C712   1.236       .  S
O677       Mg679   2.136       .  S
O677       Mg685   2.149       .  S
C678        O691   1.236       .  S
C678        O715   1.270       .  A
C678        H717   1.081       .  S
Mg679       O708   2.151       .  S
Mg679       O723   2.307       .  S
Mg679       O719   2.257       .  S
Mg679       O690   2.296       .  S
O680        C981   1.237       .  S
O680       Mg722   2.151       .  S
O680       Mg985   2.144       .  S
O681        C712   1.270       .  A
O681       Mg705   2.294       .  S
C682        O684   1.272       .  A
C682        O696   1.273       .  A
C682        C808   1.435       .  S
O683        C711   1.271       .  A
O683       Mg965   2.299       .  S
O684       Mg716   2.273       .  S
Mg685       O971   2.141   1_545  S
Mg685       O963   2.299   1_545  S
Mg685       O699   2.270       .  S
Mg685       O687   2.300       .  S
C686        O724   1.271       .  A
C686        O692   1.274       .  A
C686        C798   1.437       .  S
O687        C694   1.273       .  A
H688        C701   1.081       .  S
C689        O703   1.236       .  S
C689        O704   1.270       .  A
C689        H714   1.078       .  S
O690        C713   1.270       .  A
O691       Mg965   2.141       .  S
O691       Mg985   2.158       .  S
O692       Mg722   2.307       .  S
C693        O706   1.270       .  A
C693        O698   1.275       .  A
C693        C806   1.434       .  S
C694        O721   1.272       .  A
C694        C824   1.435       .  S
Mg695       O982   2.141       .  S
Mg695       O703   2.149       .  S
Mg695       O696   2.300       .  S
Mg695       O977   2.299       .  S
Mg695       O724   2.271       .  S
O697        C701   1.271       .  A
O697       Mg975   2.299   1_545  S
O698       Mg985   2.312       .  S
O699        C718   1.271       .  A
O700        C720   1.275       .  A
O700       Mg996   2.312   1_545  S
C701        O960   1.237   1_545  S
O702        C713   1.236       .  S
O702       Mg975   2.141   1_545  S
O702       Mg996   2.158   1_545  S
O703       Mg722   2.136       .  S
O704       Mg716   2.294       .  S
Mg705       O960   2.144   1_545  S
Mg705       O971   2.158   1_545  S
Mg705       O978   2.312   1_545  S
Mg705       O721   2.273       .  S
O706       Mg722   2.257       .  S
H707        C712   1.078       .  S
O708        C991   1.237   1_545  S
O708       Mg996   2.144   1_545  S
H709        C711   1.081       .  S
H710        C713   1.081       .  S
C711        O988   1.237       .  S
O715       Mg722   2.296       .  S
Mg716       O982   2.158       .  S
Mg716       O988   2.144       .  S
Mg716       O980   2.312       .  S
C718        O723   1.274       .  A
C718        C799   1.437       .  S
O719        C720   1.270       .  A
C720        C825   1.434       .  S
C725        C731   1.535       .  S
C725        C730   1.535       .  S
C725        C729   1.536       .  S
C725        H726   1.112       .  S
C727        C733   1.535       .  S
C727        C732   1.536       .  S
C727        C734   1.535       .  S
C727        H728   1.112       .  S
C729        C795   1.447       .  S
C729        C732   1.369       .  D
C730        C816   1.445       .  S
C730        C733   1.368       .  D
C731        C814   1.445       .  S
C731        C734   1.369       .  D
C732        C797   1.447       .  S
C733        C836   1.445       .  S
C734        C838   1.445       .  S
O735        C770   1.236       .  S
O735       Mg737   2.136       .  S
O735       Mg743   2.149       .  S
C736        O749   1.236       .  S
C736        O773   1.270       .  A
C736        H775   1.081       .  S
Mg737       O766   2.151       .  S
Mg737       O781   2.307       .  S
Mg737       O777   2.257       .  S
Mg737       O748   2.296       .  S
O738        C759   1.237       .  S
O738       Mg780   2.151       .  S
O738       Mg763   2.144       .  S
O739        C770   1.270       .  A
O739       Mg763   2.294       .  S
C740        O742   1.272       .  A
C740        O754   1.273       .  A
C740        C822   1.435       .  S
O741        C769   1.271       .  A
O741       Mg743   2.299       .  S
O742       Mg774   2.273       .  S
Mg743       O749   2.141       .  S
Mg743       O757   2.270       .  S
Mg743       O745   2.300       .  S
C744        O782   1.271       .  A
C744        O750   1.274       .  A
C744        C793   1.437       .  S
O745        C752   1.273       .  A
H746        C759   1.081       .  S
C747        O761   1.236       .  S
C747        O762   1.270       .  A
C747        H772   1.078       .  S
O748        C771   1.270       .  A
O749       Mg763   2.158       .  S
O750       Mg780   2.307       .  S
C751        O764   1.270       .  A
C751        O756   1.275       .  A
C751        C820   1.434       .  S
C752        O779   1.272       .  A
C752        C802   1.435       .  S
Mg753       O760   2.141       .  S
Mg753       O761   2.149       .  S
Mg753       O754   2.300       .  S
Mg753       O755   2.299       .  S
Mg753       O782   2.270       .  S
O755        C759   1.271       .  A
O756       Mg763   2.312       .  S
O757        C776   1.271       .  A
O758        C778   1.275       .  A
O758       Mg774   2.312       .  S
O760        C771   1.236       .  S
O760       Mg774   2.158       .  S
O761       Mg780   2.136       .  S
O762       Mg774   2.294       .  S
Mg763       O779   2.273       .  S
O764       Mg780   2.257       .  S
H765        C770   1.079       .  S
O766        C769   1.237       .  S
O766       Mg774   2.144       .  S
H767        C769   1.081       .  S
H768        C771   1.081       .  S
O773       Mg780   2.296       .  S
C776        O781   1.274       .  A
C776        C796   1.437       .  S
O777        C778   1.270       .  A
C778        C804   1.434       .  S
C783        C789   1.535       .  S
C783        C788   1.535       .  S
C783        C787   1.536       .  S
C783        H784   1.112       .  S
C785        C791   1.535       .  S
C785        C790   1.536       .  S
C785        C792   1.535       .  S
C785        H786   1.112       .  S
C787        C794   1.447       .  S
C787        C790   1.369       .  D
C788        C812   1.445       .  S
C788        C791   1.369       .  D
C789        C809   1.445       .  S
C789        C792   1.368       .  D
C790        C800   1.447       .  S
C791        C829   1.445       .  S
C792        C832   1.445       .  S
C793        C794   1.207       .  T
C795        C796   1.207       .  T
C797        C798   1.207       .  T
C799        C800   1.207       .  T
C801        C802   1.206       .  T
C803        C804   1.205       .  T
C805        C806   1.205       .  T
C807        C808   1.206       .  T
C809        C810   1.205       .  T
C811        C812   1.206       .  T
C813        C814   1.206       .  T
C815        C816   1.205       .  T
C817        C818   1.207       .  T
C819        C820   1.205       .  T
C821        C822   1.206       .  T
C823        C824   1.206       .  T
C825        C826   1.205       .  T
C829        C830   1.206       .  T
C831        C832   1.205       .  T
C833        C834   1.207       .  T
C835        C836   1.205       .  T
C837        C838   1.206       .  T
C839        C840   1.207       .  T
O841        C876   1.236       .  S
O841       Mg849   2.149       .  S
C842        O855   1.236       .  S
C842        O879   1.270       .  A
C842        H881   1.081       .  S
Mg843       O872   2.151       .  S
Mg843       O887   2.307       .  S
Mg843       O883   2.257       .  S
Mg843       O854   2.296   1_556  S
O844       Mg886   2.151       .  S
O845        C876   1.270   1_554  A
O845       Mg869   2.294       .  S
C846        O848   1.272       .  A
C846        O860   1.273       .  A
C846       C1117   1.435       .  S
O848       Mg880   2.273   1_554  S
Mg849       O863   2.270       .  S
Mg849       O851   2.300       .  S
C850        O856   1.274   1_455  A
C850       C1120   1.437       .  S
O851        C858   1.273       .  A
H852        C865   1.081       .  S
C853        O867   1.236       .  S
C853        O868   1.270   1_554  A
C853        H878   1.079       .  S
O854        C877   1.270       .  A
O856       Mg886   2.307       .  S
C857        O870   1.270       .  A
C857        O862   1.275       .  A
C857       C1115   1.434       .  S
C858        O885   1.272       .  A
C858       C1110   1.435       .  S
Mg859       O867   2.149       .  S
Mg859       O860   2.300       .  S
Mg859       O888   2.270       .  S
O864        C884   1.275       .  A
O866        C877   1.236       .  S
O868       Mg880   2.294       .  S
Mg869       O885   2.273   1_554  S
O870       Mg886   2.257       .  S
H871        C876   1.078       .  S
H873        C875   1.081       .  S
H874        C877   1.081       .  S
O879       Mg886   2.296   1_556  S
C882        O887   1.274       .  A
O883        C884   1.270       .  A
C884       C1111   1.434       .  S
C889        C895   1.535       .  S
C889        C893   1.536       .  S
C891        C898   1.535       .  S
C891        H892   1.112       .  S
C893       C1114   1.447       .  S
C894       C1106   1.445       .  S
C894        C897   1.368       .  D
C895       C1103   1.445       .  S
C895        C898   1.369       .  D
C896       C1108   1.447       .  S
C897       C1099   1.445       .  S
C898       C1101   1.445       .  S
O899        C934   1.236       .  S
O899       Mg907   2.149       .  S
C900        O913   1.236       .  S
C900        O937   1.270       .  A
C900        H939   1.081       .  S
Mg901       O930   2.151       .  S
Mg901       O945   2.307       .  S
Mg901       O941   2.257       .  S
Mg901       O912   2.296   1_554  S
O902        C923   1.237       .  S
O902       Mg944   2.151       .  S
O902       Mg927   2.144       .  S
O903        C934   1.270   1_556  A
O903       Mg927   2.294       .  S
C904        O906   1.272       .  A
C904        O918   1.273       .  A
C904       C1091   1.435       .  S
O905       Mg907   2.299       .  S
O906       Mg938   2.273   1_556  S
Mg907       O913   2.141       .  S
Mg907       O921   2.270       .  S
Mg907       O909   2.300       .  S
C908        O946   1.271       .  A
C908       C1107   1.437       .  S
O909        C916   1.273       .  A
H910        C923   1.081       .  S
C911        O925   1.236       .  S
C911        O926   1.270   1_556  A
C911        H936   1.078       .  S
O912        C935   1.270       .  A
O913       Mg927   2.158   1_554  S
O914       Mg944   2.307       .  S
C915        O928   1.270       .  A
C915        O920   1.275       .  A
C915       C1090   1.434       .  S
C916        O943   1.272       .  A
C916       C1093   1.435       .  S
Mg917       O924   2.141       .  S
Mg917       O925   2.149       .  S
Mg917       O918   2.299       .  S
Mg917       O919   2.299       .  S
Mg917       O946   2.270       .  S
O920       Mg927   2.312       .  S
O922        C942   1.275       .  A
O922       Mg938   2.312       .  S
O924        C935   1.236       .  S
O924       Mg938   2.158   1_556  S
O926       Mg938   2.294       .  S
Mg927       O943   2.273   1_556  S
O928       Mg944   2.257       .  S
H929        C934   1.078       .  S
O930        C933   1.237       .  S
O930       Mg938   2.144       .  S
H931        C933   1.081       .  S
H932        C935   1.081       .  S
O937       Mg944   2.296   1_554  S
C940        O945   1.274   1_455  A
C940       C1097   1.437       .  S
O941        C942   1.270       .  A
C942       C1095   1.434       .  S
C947        C953   1.535   1_455  S
C947        C951   1.536       .  S
C949        C956   1.535   1_455  S
C949        H950   1.112       .  S
C951       C1119   1.447       .  S
C952       C1087   1.445       .  S
C952        C955   1.369       .  D
C953       C1085   1.445       .  S
C953        C956   1.368       .  D
C955       C1081   1.445       .  S
C956       C1083   1.445       .  S
O957        C992   1.236       .  S
O957       Mg959   2.136       .  S
O957       Mg965   2.149       .  S
C958        O971   1.236       .  S
C958        O995   1.270       .  A
C958        H997   1.081       .  S
Mg959       O988   2.151       .  S
Mg959      O1003   2.307       .  S
Mg959       O999   2.257       .  S
Mg959       O970   2.296       .  S
O960      Mg1002   2.151       .  S
O961        C992   1.270       .  A
O961       Mg985   2.294       .  S
C962        O964   1.272       .  A
C962        O976   1.273       .  A
C962       C1088   1.435       .  S
O963        C991   1.271       .  A
O964       Mg996   2.273       .  S
Mg965       O979   2.270       .  S
Mg965       O967   2.300       .  S
C966       O1004   1.271       .  A
C966        O972   1.274       .  A
C966       C1078   1.437       .  S
O967        C974   1.273       .  A
H968        C981   1.081       .  S
C969        O983   1.236       .  S
C969        O984   1.270       .  A
C969        H994   1.079       .  S
O970        C993   1.270       .  A
O972      Mg1002   2.307       .  S
C973        O986   1.270       .  A
C973        O978   1.275       .  A
C973       C1086   1.434       .  S
C974       O1001   1.272       .  A
C974       C1104   1.435       .  S
Mg975       O983   2.149       .  S
Mg975       O976   2.300       .  S
Mg975      O1004   2.271       .  S
O977        C981   1.271       .  A
O979        C998   1.271       .  A
O980       C1000   1.275       .  A
O982        C993   1.236       .  S
O983      Mg1002   2.136       .  S
O984       Mg996   2.294       .  S
Mg985      O1001   2.273       .  S
O986      Mg1002   2.257       .  S
H987        C992   1.078       .  S
H989        C991   1.081       .  S
H990        C993   1.081       .  S
O995      Mg1002   2.296       .  S
C998       O1003   1.274       .  A
C998       C1079   1.437       .  S
O999       C1000   1.270       .  A
C1000      C1105   1.434       .  S
C1005      C1011   1.535       .  S
C1005      C1010   1.535       .  S
C1005      C1009   1.536       .  S
C1005      H1006   1.112       .  S
C1007      C1013   1.535       .  S
C1007      C1012   1.536       .  S
C1007      C1014   1.535       .  S
C1007      H1008   1.112       .  S
C1009      C1075   1.447       .  S
C1009      C1012   1.369       .  D
C1010      C1096   1.445       .  S
C1010      C1013   1.368       .  D
C1011      C1094   1.445       .  S
C1011      C1014   1.369       .  D
C1012      C1077   1.447       .  S
C1013      C1116   1.445       .  S
C1014      C1118   1.445       .  S
O1015      C1050   1.236       .  S
O1015     Mg1017   2.136       .  S
O1015     Mg1023   2.149       .  S
C1016      O1029   1.236       .  S
C1016      O1053   1.270       .  A
C1016      H1055   1.081       .  S
Mg1017     O1046   2.151       .  S
Mg1017     O1061   2.307       .  S
Mg1017     O1057   2.257       .  S
Mg1017     O1028   2.296       .  S
O1018      C1039   1.237       .  S
O1018     Mg1060   2.151       .  S
O1018     Mg1043   2.144       .  S
O1019      C1050   1.270       .  A
O1019     Mg1043   2.294       .  S
C1020      O1022   1.272       .  A
C1020      O1034   1.273       .  A
C1020      C1102   1.435       .  S
O1021      C1049   1.271       .  A
O1021     Mg1023   2.299       .  S
O1022     Mg1054   2.273       .  S
Mg1023     O1029   2.141       .  S
Mg1023     O1037   2.270       .  S
Mg1023     O1025   2.300       .  S
C1024      O1062   1.271       .  A
C1024      O1030   1.274       .  A
C1024      C1073   1.437       .  S
O1025      C1032   1.273       .  A
H1026      C1039   1.081       .  S
C1027      O1041   1.236       .  S
C1027      O1042   1.270       .  A
C1027      H1052   1.078       .  S
O1028      C1051   1.270       .  A
O1029     Mg1043   2.158       .  S
O1030     Mg1060   2.307       .  S
C1031      O1044   1.270       .  A
C1031      O1036   1.275       .  A
C1031      C1100   1.434       .  S
C1032      O1059   1.272       .  A
C1032      C1082   1.435       .  S
Mg1033     O1040   2.141       .  S
Mg1033     O1041   2.149       .  S
Mg1033     O1034   2.300       .  S
Mg1033     O1035   2.299       .  S
Mg1033     O1062   2.270       .  S
O1035      C1039   1.271       .  A
O1036     Mg1043   2.312       .  S
O1037      C1056   1.271       .  A
O1038      C1058   1.275       .  A
O1038     Mg1054   2.312       .  S
O1040      C1051   1.236       .  S
O1040     Mg1054   2.158       .  S
O1041     Mg1060   2.136       .  S
O1042     Mg1054   2.294       .  S
Mg1043     O1059   2.273       .  S
O1044     Mg1060   2.257       .  S
H1045      C1050   1.079       .  S
O1046      C1049   1.237       .  S
O1046     Mg1054   2.144       .  S
H1047      C1049   1.081       .  S
H1048      C1051   1.081       .  S
O1053     Mg1060   2.296       .  S
C1056      O1061   1.274       .  A
C1056      C1076   1.437       .  S
O1057      C1058   1.270       .  A
C1058      C1084   1.434       .  S
C1063      C1069   1.535       .  S
C1063      C1068   1.535       .  S
C1063      C1067   1.536       .  S
C1063      H1064   1.112       .  S
C1065      C1071   1.535       .  S
C1065      C1070   1.536       .  S
C1065      C1072   1.535       .  S
C1065      H1066   1.112       .  S
C1067      C1074   1.447       .  S
C1067      C1070   1.369       .  D
C1068      C1092   1.445       .  S
C1068      C1071   1.369       .  D
C1069      C1089   1.445       .  S
C1069      C1072   1.368       .  D
C1070      C1080   1.447       .  S
C1071      C1109   1.445       .  S
C1072      C1112   1.445       .  S
C1073      C1074   1.207       .  T
C1075      C1076   1.207       .  T
C1077      C1078   1.207       .  T
C1079      C1080   1.207       .  T
C1081      C1082   1.206       .  T
C1083      C1084   1.205       .  T
C1085      C1086   1.205       .  T
C1087      C1088   1.206       .  T
C1089      C1090   1.205       .  T
C1091      C1092   1.206       .  T
C1093      C1094   1.206       .  T
C1095      C1096   1.205       .  T
C1097      C1098   1.207       .  T
C1099      C1100   1.205       .  T
C1101      C1102   1.206       .  T
C1103      C1104   1.206       .  T
C1105      C1106   1.205       .  T
C1109      C1110   1.206       .  T
C1111      C1112   1.205       .  T
C1113      C1114   1.207       .  T
C1115      C1116   1.205       .  T
C1117      C1118   1.206       .  T
C1119      C1120   1.207       .  T
