geometry optimzed in LAMMPS
_audit_creation_date              2020-11-30 
_audit_creation_method            'lammps2cif' 
_symmetry_space_group_name_H-M    'P1' 
_symmetry_Int_Tables_number       1 
_symmetry_cell_setting            triclinic 
loop_ 
_symmetry_equiv_pos_as_xyz 
  x,y,z 
_cell_length_a                    47.88872596 
_cell_length_b                    33.68419335231077 
_cell_length_c                    42.0616492435956 
_cell_angle_alpha                 90.05454606576407 
_cell_angle_beta                  89.67694983350812 
_cell_angle_gamma                 90.06669670612037 
loop_ 
_atom_site_label 
_atom_site_type_symbol 
_atom_site_fract_x 
_atom_site_fract_y 
_atom_site_fract_z 
_atom_site_charge 
Zr1        Zr  0.00146984  0.92607808  0.02042861     2.17500
O2          O  0.50099017  0.86035463  0.00498633    -0.51500
O3          O  0.99971231  0.91270649  0.07662032    -0.74700
O4          O  0.04606279  0.89872043  0.03742792    -0.81500
O5          O  0.42226720  0.94370314  0.01962733    -0.83200
O6          O  0.07962695  0.94449546  0.02574117    -0.78800
O7          O  0.45496823  0.89781491  0.03315279    -0.90500
O8          O  0.99637276  0.97121543  0.10328325    -0.76400
O9          O  0.02893498  0.97660429  0.04427119    -0.85900
O10         O  0.47152183  0.97956904  0.04591047    -0.85600
O11         O  0.03109626  0.95025725  0.97831260    -0.72400
O12         O  0.47369448  0.95123035  0.98067910    -0.84500
Zr13       Zr  0.50380417  0.07471581  0.97873945     2.26400
Zr14       Zr  0.05768467  0.00226073  0.00282198     2.06300
Zr15       Zr  0.44549044  0.00377265  0.00184152     2.10000
Zr16       Zr  0.50213581  0.02832953  0.06679337     1.78800
O17         O  0.41088444  0.98486664  0.96244843    -0.93300
O18         O  0.03616611  0.03864503  0.09968118    -0.41100
O19         O  0.47535320  0.05410786  0.02311903    -0.77800
O20         O  0.02700320  0.05218355  0.02313548    -0.96500
O21         O  0.03297648  0.02476833  0.95730036    -0.89800
O22         O  0.47359270  0.02509222  0.95817027    -0.92600
C23         C  0.99810118  0.93314961  0.10225192     1.01200
C24         C  0.42952826  0.90960150  0.03038681     1.14100
C25         C  0.07144770  0.91115079  0.03716769     1.04900
O26         O  0.08634458  0.03248792  0.04395096    -0.94800
O27         O  0.07983474  0.06094296  0.98133721    -0.90500
O28         O  0.04678896  0.10428880  0.96457816    -0.83600
C29         C  0.07236842  0.09349345  0.96810453     1.11500
O30         O  0.50667719  0.90682536  0.91691052    -0.96700
Zr31       Zr  0.00506236  0.97472950  0.93354098     1.88900
O32         O  0.50614611  0.08468100  0.92176183    -0.73400
O33         O  0.09773665  0.97964477  0.97182155    -0.52600
O34         O  0.04741038  0.96481978  0.90213013    -0.97300
O35         O  0.46161549  0.95609551  0.90626159    -0.54500
O36         O  0.50021723  0.02558084  0.89644004    -0.73900
C37         C  0.50328537  0.06351663  0.89660653     0.98500
O38         O  0.50479996  0.14322770  0.99722029    -0.62700
O39         O  0.41114387  0.02726035  0.04048372    -0.57500
O40         O  0.45896588  0.10538270  0.96493237    -0.94200
O41         O  0.42418726  0.06379364  0.98142890    -0.92600
O42         O  0.46383639  0.05049769  0.10068952    -0.93000
O43         O  0.50458797  0.09596551  0.08720161    -0.91800
C44         C  0.43303099  0.09560662  0.96793157     1.17300
H45         H  0.45916338  0.96989061  0.06245428     0.33200
H46         H  0.03773289  0.07405996  0.03164366     0.44100
H47         H  0.46195765  0.03510278  0.94131402     0.37600
H48         H  0.04350835  0.92937560  0.97129664     0.34100
H49         H  0.02768201  0.03900038  0.12121230     0.25900
H50         H  0.09449398  0.99008531  0.95015560     0.31800
H51         H  0.05588024  0.99154720  0.90025486     0.37700
H52         H  0.44908883  0.05884646  0.08572751     0.32200
H53         H  0.39300934  0.01745296  0.03243237     0.31100
H54         H  0.39296137  0.99508457  0.97096424     0.32800
H55         H  0.45179624  0.98140130  0.90215742     0.31700
H56         H  0.00665097  0.10754308  0.07403814     0.35700
H57         H  0.49018745  0.14434918  0.01394346     0.28400
H58         H  0.01114984  0.84240785  0.01775468     0.32700
H59         H  0.00773582  0.91212357  0.88720652     0.35500
H60         H  0.41454036  0.01132758  0.05984044     0.28100
H61         H  0.01750573  0.14208312  0.01264902     0.41000
H62         H  0.10579529  0.02608414  0.03773891     0.31100
H63         H  0.04760579  0.01417954  0.09930799     0.38700
H64         H  0.44926108  0.94175441  0.92132764     0.30500
H65         H  0.11371693  0.99528163  0.97990620     0.30600
H66         H  0.02063262  0.85931729  0.98470518     0.30900
C67         C  0.49547268  0.21237012  0.66807055     0.45300
H68         H  0.49488447  0.17941158  0.66888879    -0.03700
C69         C  0.99751372  0.29232126  0.66405293     0.45400
H70         H  0.99857376  0.32524805  0.66292441    -0.03700
C71         C  0.02075251  0.23093664  0.64873699    -0.17400
C72         C  0.47019836  0.23107510  0.65149917    -0.17200
C73         C  0.99527763  0.23434601  0.69911263    -0.17500
C74         C  0.02220389  0.27153503  0.64770382    -0.17500
C75         C  0.47157488  0.27179875  0.64967331    -0.17100
C76         C  0.49716199  0.27305743  0.69971636    -0.17400
Zr77       Zr  0.50132668  0.43536109  0.97187090     2.17500
O78         O  0.00428982  0.36432253  0.99077452    -0.51500
O79         O  0.49858758  0.42692246  0.91543112    -0.74700
O80         O  0.45631594  0.40509384  0.96008588    -0.81500
O81         O  0.08031100  0.44326525  0.97617580    -0.83200
O82         O  0.42347187  0.45128592  0.97239535    -0.78800
O83         O  0.04595457  0.40335195  0.95669121    -0.90500
O84         O  0.49820799  0.48730684  0.89131122    -0.76400
O85         O  0.47180647  0.48665089  0.95250144    -0.85900
O86         O  0.03122359  0.48335366  0.95258982    -0.85600
O87         O  0.47339077  0.45511178  0.01685614    -0.72400
O88         O  0.02965288  0.45205104  0.01721622    -0.84500
Zr89       Zr  0.50196022  0.57962286  0.02286450     2.26400
Zr90       Zr  0.44513068  0.50825467  0.99698590     2.06300
Zr91       Zr  0.05890058  0.50362655  0.99659482     2.10000
Zr92       Zr  0.50109607  0.53806040  0.93325348     1.78800
O93         O  0.09632373  0.48130628  0.03123475    -0.93300
O94         O  0.46028343  0.55674045  0.90222861    -0.41100
O95         O  0.03058453  0.55704465  0.97742724    -0.77800
O96         O  0.47394323  0.56121549  0.97782384    -0.96500
O97         O  0.47228893  0.52819188  0.04137817    -0.89800
O98         O  0.03208683  0.52461841  0.04145501    -0.92600
C99         C  0.49738785  0.44908844  0.89082304     1.01200
C100        C  0.07183652  0.41238084  0.96108801     1.14100
C101        C  0.43094245  0.41747899  0.96117265     1.04900
O102        O  0.41219289  0.53655075  0.95939801    -0.94800
O103        O  0.42271504  0.56432724  0.02174537    -0.90500
O104        O  0.45670115  0.60666839  0.03867135    -0.83600
C105        C  0.43109470  0.59567085  0.03602672     1.11500
O106        O  0.00594472  0.40506350  0.07630237    -0.96700
Zr107      Zr  0.50121313  0.47700989  0.06100190     1.88900
O108        O  0.49849430  0.58821366  0.07973331    -0.73400
O109        O  0.40868412  0.48613159  0.03346835    -0.52600
O110        O  0.45948423  0.46129693  0.09188743    -0.97300
O111        O  0.04084192  0.46118053  0.09712029    -0.54500
O112        O  0.49961848  0.52747676  0.10332843    -0.73900
C113        C  0.49803698  0.56567156  0.10426905     0.98500
O114        O  0.00419637  0.64608438  0.00544358    -0.62700
O115        O  0.09091403  0.52915897  0.95635148    -0.57500
O116        O  0.04843267  0.60438522  0.03717611    -0.94200
O117        O  0.08148443  0.56053600  0.02035018    -0.92600
O118        O  0.04348154  0.54927849  0.90186851    -0.93000
O119        O  0.00206114  0.60276104  0.91372844    -0.91800
C120        C  0.07387310  0.59271784  0.03422422     1.17300
H121        H  0.04278259  0.47396421  0.93522697     0.33200
H122        H  0.46248001  0.58339481  0.97139643     0.44100
H123        H  0.04397814  0.53315940  0.05859672     0.37600
H124        H  0.46168047  0.43328035  0.02354111     0.34100
H125        H  0.46677114  0.55625195  0.87983899     0.25900
H126        H  0.39129989  0.48695407  0.02086116     0.31800
H127        H  0.44845229  0.48613560  0.09204491     0.37700
H128        H  0.05460757  0.56779813  0.91500329     0.32200
H129        H  0.10967166  0.52616307  0.96581663     0.31100
H130        H  0.11333724  0.49471049  0.02310518     0.32800
H131        H  0.04880259  0.48740436  0.10262034     0.31700
H132        H  0.51241530  0.62119894  0.93133808     0.35700
H133        H  0.01874660  0.64686200  0.98864471     0.28400
H134        H  0.49933416  0.35084297  0.96733166     0.32700
H135        H  0.49957019  0.40911072  0.10202525     0.35500
H136        H  0.09046071  0.50930236  0.93899194     0.28100
H137        H  0.48427202  0.65142676  0.99330266     0.41000
H138        H  0.39355805  0.53047240  0.96848916     0.31100
H139        H  0.44745308  0.53375600  0.90395906     0.38700
H140        H  0.05521917  0.44864660  0.08340060     0.30500
H141        H  0.41233077  0.45752533  0.03681283     0.30600
H142        H  0.48589576  0.36138570  0.00035812     0.30900
C143        C  0.49774236  0.78838179  0.33688192     0.45300
H144        H  0.49742730  0.82134532  0.33747372    -0.03700
C145        C  0.99953544  0.70993484  0.33438302     0.45400
H146        H  0.99983523  0.67698349  0.33521054    -0.03700
C147        C  0.02374928  0.77019991  0.35031531    -0.17400
C148        C  0.47275788  0.76912271  0.35400466    -0.17200
C149        C  0.99871314  0.76872649  0.30022202    -0.17500
C150        C  0.02472774  0.72950256  0.35069577    -0.17500
C151        C  0.47375505  0.72838098  0.35430049    -0.17100
C152        C  0.49796803  0.72912766  0.30309067    -0.17400
Zr153      Zr  0.24716894  0.92446653  0.47834174     2.17500
O154        O  0.24367212  0.85626231  0.49717165    -0.51500
O155        O  0.25055703  0.91485912  0.42178723    -0.74700
O156        O  0.20288988  0.89862797  0.45942688    -0.81500
O157        O  0.32505942  0.93540884  0.48478786    -0.83200
O158        O  0.16891565  0.94120208  0.47626638    -0.78800
O159        O  0.29188853  0.89294370  0.46660335    -0.90500
O160        O  0.24687916  0.97509272  0.39772888    -0.76400
O161        O  0.21802646  0.97606972  0.45891761    -0.85900
O162        O  0.27715577  0.97548048  0.45914674    -0.85600
O163        O  0.21829555  0.94393077  0.52272277    -0.72400
O164        O  0.27444541  0.94346552  0.52370571    -0.84500
Zr165      Zr  0.24709804  0.06821350  0.52877258     2.26400
Zr166      Zr  0.19026271  0.99708287  0.50293281     2.06300
Zr167      Zr  0.30355483  0.99577305  0.50396093     2.10000
Zr168      Zr  0.24799879  0.02649051  0.43946618     1.78800
O169        O  0.34092485  0.97458010  0.53920560    -0.93300
O170        O  0.20922409  0.04529994  0.40539048    -0.41100
O171        O  0.27544204  0.04889186  0.48392997    -0.77800
O172        O  0.21967306  0.04937475  0.48338427    -0.96500
O173        O  0.21692134  0.01728950  0.54765963    -0.89800
O174        O  0.27578345  0.01593025  0.54807260    -0.92600
C175        C  0.24908770  0.93695039  0.39710392     1.01200
C176        C  0.31747831  0.90317681  0.47102155     1.14100
C177        C  0.17738261  0.91001216  0.46164404     1.04900
O178        O  0.15538129  0.02383186  0.46695016    -0.94800
O179        O  0.16830860  0.05338474  0.52903533    -0.90500
O180        O  0.20230588  0.09584704  0.54567404    -0.83600
C181        C  0.17666068  0.08496649  0.54321395     1.11500
O182        O  0.24565726  0.89491242  0.58018177    -0.96700
Zr183      Zr  0.24555562  0.96555326  0.56731861     1.88900
O184        O  0.25055942  0.07570048  0.58557431    -0.73400
O185        O  0.15565639  0.96761726  0.53845326    -0.52600
O186        O  0.20406400  0.95039975  0.59886894    -0.97300
O187        O  0.28384042  0.95044131  0.60346334    -0.54500
O188        O  0.24487610  0.01566530  0.60953059    -0.73900
C189        C  0.24854984  0.05348782  0.61018303     0.98500
O190        O  0.24391038  0.13778122  0.51327359    -0.62700
O191        O  0.33657814  0.01893853  0.46376811    -0.57500
O192        O  0.29200265  0.09936847  0.54016678    -0.94200
O193        O  0.32502440  0.05343983  0.52771550    -0.92600
O194        O  0.28955381  0.04188382  0.40810320    -0.93000
O195        O  0.24877646  0.09498411  0.42096872    -0.91800
C196        C  0.31745092  0.08717590  0.53900523     1.17300
H197        H  0.28933088  0.96613606  0.44231996     0.33200
H198        H  0.20836487  0.07154552  0.47672306     0.44100
H199        H  0.28765095  0.02477802  0.56513394     0.37600
H200        H  0.20643089  0.92207865  0.52906609     0.34100
H201        H  0.20031464  0.01992542  0.39920592     0.25900
H202        H  0.15721156  0.98284069  0.55851280     0.31800
H203        H  0.19466718  0.97628555  0.60201135     0.37700
H204        H  0.28311845  0.04162122  0.38576582     0.32200
H205        H  0.35516770  0.01520641  0.47349119     0.31100
H206        H  0.35824185  0.98545892  0.52959988     0.32800
H207        H  0.27476824  0.94607439  0.62438248     0.31700
H208        H  0.25066621  0.11103708  0.44056266     0.35700
H209        H  0.25946972  0.14176496  0.49801301     0.28400
H210        H  0.23786845  0.84067212  0.47835289     0.32700
H211        H  0.24154360  0.89325196  0.60323816     0.35500
H212        H  0.33585912  0.99882326  0.44660967     0.28100
H213        H  0.22689658  0.13944490  0.50006622     0.41000
H214        H  0.16031345  0.01258373  0.44589681     0.31100
H215        H  0.19550514  0.05809229  0.41977537     0.38700
H216        H  0.29422719  0.97565891  0.60609134     0.30500
H217        H  0.13744484  0.97569940  0.52952766     0.30600
H218        H  0.22712769  0.85604482  0.51138817     0.30900
C219        C  0.25061375  0.71428200  0.16585239     0.45300
H220        H  0.25005250  0.68130355  0.16558320    -0.03700
C221        C  0.25145123  0.79180097  0.16506522     0.45400
H222        H  0.25190479  0.82478163  0.16453752    -0.03700
C223        C  0.27593196  0.73185266  0.14870020    -0.17400
C224        C  0.22536688  0.73312775  0.14956541    -0.17200
C225        C  0.25097675  0.73280878  0.19920176    -0.17500
C226        C  0.27644711  0.77252176  0.14806938    -0.17500
C227        C  0.22578874  0.77379680  0.14916465    -0.17100
C228        C  0.25138598  0.77383171  0.19873738    -0.17400
Zr229      Zr  0.24806776  0.42178651  0.51987443     2.17500
O230        O  0.24919259  0.35341874  0.50073728    -0.51500
O231        O  0.24799419  0.40999190  0.57655381    -0.74700
O232        O  0.29320060  0.39345941  0.53372382    -0.81500
O233        O  0.16959108  0.43374151  0.51711358    -0.83200
O234        O  0.32547141  0.44209952  0.52498686    -0.78800
O235        O  0.20337556  0.39015634  0.53182881    -0.90500
O236        O  0.25317299  0.46873656  0.60252186    -0.76400
O237        O  0.27759642  0.47225729  0.54038787    -0.85900
O238        O  0.21862453  0.47177546  0.54190460    -0.85600
O239        O  0.27562505  0.44456799  0.47530314    -0.72400
O240        O  0.21965101  0.44407607  0.47639522    -0.84500
Zr241      Zr  0.24658480  0.56936466  0.47601946     2.26400
Zr242      Zr  0.30418497  0.49659411  0.49665909     2.06300
Zr243      Zr  0.19078561  0.49496576  0.49901128     2.10000
Zr244      Zr  0.24846359  0.52154658  0.56270540     1.78800
O245        O  0.15546556  0.47572387  0.46056381    -0.93300
O246        O  0.29048213  0.53996290  0.59146264    -0.41100
O247        O  0.21947444  0.54630383  0.52060439    -0.77800
O248        O  0.27555330  0.54773668  0.51922475    -0.96500
O249        O  0.27628762  0.51985017  0.45394188    -0.89800
O250        O  0.21734465  0.51869081  0.45504528    -0.92600
C251        C  0.25100672  0.43063408  0.60194928     1.01200
C252        C  0.17767510  0.40059136  0.52889910     1.14100
C253        C  0.31795924  0.40799249  0.53549585     1.04900
O254        O  0.34099478  0.52389899  0.53006012    -0.94800
O255        O  0.32475944  0.55370990  0.47064104    -0.90500
O256        O  0.29096240  0.59962343  0.46089578    -0.83600
C257        C  0.31633232  0.58728290  0.46008556     1.11500
O258        O  0.24492731  0.40111959  0.41437606    -0.96700
Zr259      Zr  0.24707412  0.46974493  0.43279143     1.88900
O260        O  0.24442081  0.58187609  0.41975373    -0.73400
O261        O  0.33870991  0.46890726  0.46020902    -0.52600
O262        O  0.28683730  0.45409965  0.39871960    -0.97300
O263        O  0.20666969  0.45897019  0.39873558    -0.54500
O264        O  0.24935033  0.52348689  0.39317898    -0.73900
C265        C  0.24674948  0.56157882  0.39411930     0.98500
O266        O  0.24683612  0.63752358  0.49541734    -0.62700
O267        O  0.15630161  0.51504822  0.53870920    -0.57500
O268        O  0.20150077  0.60017429  0.46578246    -0.94200
O269        O  0.16841924  0.55498717  0.47997656    -0.92600
O270        O  0.21183729  0.53134507  0.60235031    -0.93000
O271        O  0.24250509  0.59029178  0.57920386    -0.91800
C272        C  0.17596906  0.58858843  0.46829845     1.17300
H273        H  0.20699691  0.46126480  0.55878009     0.33200
H274        H  0.28694968  0.56960323  0.52646516     0.44100
H275        H  0.20519908  0.52879422  0.43872925     0.37600
H276        H  0.28727224  0.42314678  0.46762850     0.34100
H277        H  0.28537066  0.53677323  0.61415498     0.25900
H278        H  0.33420444  0.48081830  0.43936293     0.31800
H279        H  0.29807827  0.43486437  0.41097393     0.37700
H280        H  0.20267741  0.50515402  0.60478179     0.32200
H281        H  0.13983412  0.49799725  0.53470073     0.31100
H282        H  0.13762554  0.47664845  0.47255421     0.32800
H283        H  0.20013881  0.48574789  0.39261490     0.31700
H284        H  0.25274246  0.60596235  0.56299857     0.35700
H285        H  0.23208619  0.63821670  0.51199586     0.28400
H286        H  0.25311240  0.33721164  0.51984359     0.32700
H287        H  0.24579503  0.40252624  0.39087237     0.35500
H288        H  0.16379161  0.50545335  0.55919509     0.28100
H289        H  0.26449895  0.64013367  0.50736464     0.41000
H290        H  0.33404733  0.55006315  0.53731300     0.31100
H291        H  0.30375466  0.51805522  0.58716415     0.38700
H292        H  0.19194884  0.44875883  0.41318881     0.30500
H293        H  0.35649730  0.48174641  0.46640187     0.30600
H294        H  0.26641315  0.35153129  0.48769849     0.30900
C295        C  0.25476357  0.28749422  0.83372254     0.45300
H296        H  0.25584676  0.32040881  0.83277678    -0.03700
C297        C  0.25178931  0.21028161  0.83697540     0.45400
H298        H  0.25062872  0.17739219  0.83863352    -0.03700
C299        C  0.27923509  0.26830504  0.85148782    -0.17400
C300        C  0.22835392  0.27235350  0.85055572    -0.17200
C301        C  0.25472605  0.26706358  0.80092995    -0.17500
C302        C  0.27754600  0.22766473  0.85319836    -0.17500
C303        C  0.22679920  0.23171208  0.85227986    -0.17100
C304        C  0.25330371  0.22611163  0.80275841    -0.17400
C305        C  0.22058767  0.29200781  0.69193169    -0.18000
C306        C  0.22038070  0.31484989  0.66424343    -0.20200
C307        C  0.23621154  0.34980940  0.66216887     0.20500
C308        C  0.25305668  0.36145016  0.68791233    -0.03100
C309        C  0.25380418  0.33782104  0.71565113    -0.06100
C310        C  0.23713881  0.30330233  0.71779289     0.20800
C311        C  0.27126666  0.34860967  0.74111929     0.18900
C312        C  0.28787481  0.38288105  0.73856861    -0.17600
C313        C  0.28683949  0.40662751  0.71122280    -0.19800
C314        C  0.26934580  0.39637167  0.68579015     0.20400
C315        C  0.26810019  0.41993765  0.65811117    -0.32900
C316        C  0.25142273  0.40815665  0.63226650     0.01100
C317        C  0.23566584  0.37299657  0.63459616    -0.24200
C318        C  0.23736171  0.28056215  0.74566149    -0.28800
C319        C  0.25496247  0.29072603  0.77102857     0.06800
C320        C  0.27188009  0.32482864  0.76855251    -0.27400
H321        H  0.20799675  0.26528465  0.69299727     0.11500
H322        H  0.20785369  0.30514232  0.64439797     0.12600
H323        H  0.30159903  0.39142527  0.75779789     0.11700
H324        H  0.29981647  0.43294810  0.70992348     0.11000
H325        H  0.28064889  0.44665433  0.65629700     0.16300
H326        H  0.22276099  0.36370250  0.61483038     0.12300
H327        H  0.22358668  0.25514673  0.74767493     0.15100
H328        H  0.28558658  0.33281352  0.78796448     0.14900
C329        C  0.21528358  0.67934719  0.33482040    -0.18000
C330        C  0.21515100  0.70290722  0.30747665    -0.20200
C331        C  0.23173460  0.69267152  0.28115650     0.20500
C332        C  0.24847298  0.65820108  0.28240076    -0.03100
C333        C  0.24771467  0.63354254  0.30957895    -0.06100
C334        C  0.23115131  0.64439464  0.33594735     0.20800
C335        C  0.26357228  0.59819309  0.31040046     0.18900
C336        C  0.28068478  0.58854324  0.28430465    -0.17600
C337        C  0.28205389  0.61357656  0.25774054    -0.19800
C338        C  0.26588331  0.64829249  0.25647977     0.20400
C339        C  0.26675438  0.67319208  0.22975089    -0.32900
C340        C  0.25005551  0.70747089  0.22822582     0.01100
C341        C  0.23206657  0.71645826  0.25377084    -0.24200
C342        C  0.23079239  0.62025195  0.36305460    -0.28800
C343        C  0.24623414  0.58469317  0.36409289     0.06800
C344        C  0.26230828  0.57352807  0.33744452    -0.27400
H345        H  0.20284882  0.68833914  0.35505344     0.11500
H346        H  0.20238071  0.72943971  0.30709666     0.12600
H347        H  0.29317698  0.56175377  0.28452220     0.11700
H348        H  0.29558652  0.60557802  0.23802583     0.11000
H349        H  0.28043142  0.66579692  0.21006963     0.16300
H350        H  0.21840261  0.74201154  0.25240358     0.12300
H351        H  0.21830090  0.62909806  0.38344221     0.15100
H352        H  0.27457082  0.54652123  0.33822415     0.14900
C353        C  0.21139094  0.88305641  0.26269838    -0.18000
C354        C  0.21136413  0.90664000  0.29016148    -0.20200
C355        C  0.23115374  0.90033010  0.31414808     0.20500
C356        C  0.25090343  0.86946935  0.31053829    -0.03100
C357        C  0.25119843  0.84608703  0.28265915    -0.06100
C358        C  0.23138772  0.85301130  0.25858251     0.20800
C359        C  0.27137234  0.81584519  0.27888337     0.18900
C360        C  0.29070055  0.80876971  0.30312259    -0.17600
C361        C  0.29007613  0.83144157  0.33094820    -0.19800
C362        C  0.27038193  0.86190865  0.33480009     0.20400
C363        C  0.26979383  0.88482750  0.36257661    -0.32900
C364        C  0.25050655  0.91597554  0.36625809     0.01100
C365        C  0.23139493  0.92392819  0.34182423    -0.24200
C366        C  0.23189283  0.82962639  0.23094809    -0.28800
C367        C  0.25181120  0.79935798  0.22731485     0.06800
C368        C  0.27174887  0.79302381  0.25105450    -0.27400
H369        H  0.19587317  0.88849523  0.24456847     0.11500
H370        H  0.19582998  0.92980673  0.29265557     0.12600
H371        H  0.30623202  0.78558392  0.30062070     0.11700
H372        H  0.30515655  0.82537748  0.34937366     0.11000
H373        H  0.28443336  0.87847936  0.38149129     0.16300
H374        H  0.21613969  0.94739372  0.34489734     0.12300
H375        H  0.21653094  0.83442776  0.21250700     0.15100
H376        H  0.28732692  0.76998424  0.24793489     0.14900
C377        C  0.21339777  0.11257025  0.74401068    -0.18000
C378        C  0.21310156  0.08735757  0.71751762    -0.20200
C379        C  0.23303489  0.09170806  0.69317555     0.20500
C380        C  0.25366783  0.12158813  0.69579245    -0.03100
C381        C  0.25407104  0.14685649  0.72259978    -0.06100
C382        C  0.23374063  0.14241700  0.74674256     0.20800
C383        C  0.27463059  0.17681929  0.72505655     0.18900
C384        C  0.29453563  0.18128041  0.70071730    -0.17600
C385        C  0.29401539  0.15643066  0.67408948    -0.19800
C386        C  0.27362240  0.12671322  0.67136232     0.20400
C387        C  0.27237571  0.10279530  0.64420046    -0.32900
C388        C  0.25146323  0.07378624  0.64100196     0.01100
C389        C  0.23224397  0.06759218  0.66584974    -0.24200
C390        C  0.23393390  0.16818595  0.77298386    -0.28800
C391        C  0.25405227  0.19843661  0.77528161     0.06800
C392        C  0.27471320  0.20205643  0.75161338    -0.27400
H393        H  0.19761121  0.10883850  0.76232214     0.11500
H394        H  0.19707384  0.06472875  0.71590162     0.12600
H395        H  0.31037433  0.20420388  0.70214578     0.11700
H396        H  0.30946720  0.16057569  0.65551280     0.11000
H397        H  0.28732261  0.10734381  0.62505720     0.16300
H398        H  0.21596680  0.04544833  0.66322091     0.12300
H399        H  0.21808116  0.16529673  0.79135018     0.15100
H400        H  0.29060594  0.22483988  0.75375028     0.14900
C401        C  0.05474205  0.63228728  0.43159072    -0.18000
C402        C  0.07586020  0.61417604  0.44928839    -0.20200
C403        C  0.10400247  0.62397039  0.44393105     0.20500
C404        C  0.11092399  0.65271163  0.42085380    -0.03100
C405        C  0.08963872  0.67063785  0.40271361    -0.06100
C406        C  0.06140473  0.66023481  0.40801293     0.20800
C407        C  0.09663692  0.69876585  0.37916146     0.18900
C408        C  0.12468764  0.70946746  0.37447559    -0.17600
C409        C  0.14569496  0.69204988  0.39272519    -0.19800
C410        C  0.13911736  0.66322424  0.41561999     0.20400
C411        C  0.16026780  0.64408942  0.43279247    -0.32900
C412        C  0.15364088  0.61396937  0.45478035     0.01100
C413        C  0.12534703  0.60480209  0.46067721    -0.24200
C414        C  0.04035577  0.67832034  0.38993171    -0.28800
C415        C  0.04720426  0.70676635  0.36679071     0.06800
C416        C  0.07543477  0.71609988  0.36102907    -0.27400
H417        H  0.03319140  0.62419374  0.43618121     0.11500
H418        H  0.07018081  0.59228489  0.46704797     0.12600
H419        H  0.13037269  0.73146734  0.35679908     0.11700
H420        H  0.16709733  0.70117320  0.38899422     0.11000
H421        H  0.18192528  0.65133120  0.42786560     0.16300
H422        H  0.11990341  0.58179696  0.47762910     0.12300
H423        H  0.01860822  0.67127542  0.39453195     0.15100
H424        H  0.08082801  0.73750364  0.34278672     0.14900
C425        C  0.39255497  0.68580496  0.46365194    -0.18000
C426        C  0.41604939  0.70314164  0.44936762    -0.20200
C427        C  0.42346909  0.69354655  0.41795489     0.20500
C428        C  0.40687737  0.66671259  0.40053609    -0.03100
C429        C  0.38324891  0.64913560  0.41496186    -0.06100
C430        C  0.37613373  0.65852825  0.44676369     0.20800
C431        C  0.36691159  0.62185283  0.39763836     0.18900
C432        C  0.37395472  0.61297048  0.36600987    -0.17600
C433        C  0.39712429  0.63084738  0.35157220    -0.19800
C434        C  0.41380595  0.65756226  0.36864227     0.20400
C435        C  0.43686794  0.67603572  0.35416623    -0.32900
C436        C  0.45294160  0.70347965  0.37120156     0.01100
C437        C  0.44676372  0.71107268  0.40336083    -0.24200
C438        C  0.35311933  0.63975204  0.46122394    -0.28800
C439        C  0.33740128  0.61183525  0.44417273     0.06800
C440        C  0.34412834  0.60333040  0.41242790    -0.27400
H441        H  0.38734689  0.69351237  0.48798603     0.11500
H442        H  0.42840390  0.72412193  0.46287506     0.12600
H443        H  0.36152957  0.59215251  0.35242822     0.11700
H444        H  0.40203470  0.62370240  0.32705204     0.11000
H445        H  0.44156665  0.67054634  0.32929493     0.16300
H446        H  0.45933243  0.73224521  0.41645151     0.12300
H447        H  0.34798011  0.64576022  0.48590256     0.15100
H448        H  0.33202904  0.58136489  0.39957366     0.14900
C449        C  0.43957786  0.86606737  0.43392161    -0.18000
C450        C  0.41783969  0.88252881  0.45191887    -0.20200
C451        C  0.39011397  0.87058221  0.44692055     0.20500
C452        C  0.38415489  0.84160861  0.42376453    -0.03100
C453        C  0.40605546  0.82539080  0.40529170    -0.06100
C454        C  0.43393088  0.83760708  0.41044996     0.20800
C455        C  0.40002100  0.79726275  0.38147482     0.18900
C456        C  0.37237874  0.78457315  0.37704001    -0.17600
C457        C  0.35071667  0.80037323  0.39557346    -0.19800
C458        C  0.35628423  0.82948734  0.41857418     0.20400
C459        C  0.33444420  0.84776365  0.43559582    -0.32900
C460        C  0.34017986  0.87813121  0.45765532     0.01100
C461        C  0.36819941  0.88825521  0.46388036    -0.24200
C462        C  0.45565593  0.82066583  0.39240919    -0.28800
C463        C  0.44974152  0.79211315  0.36908410     0.06800
C464        C  0.42180496  0.78174048  0.36293318    -0.27400
H465        H  0.46079502  0.87581558  0.43820919     0.11500
H466        H  0.42269290  0.90491109  0.46957363     0.12600
H467        H  0.36750712  0.76243758  0.35919607     0.11700
H468        H  0.32955532  0.79019464  0.39162748     0.11000
H469        H  0.31300235  0.83973201  0.43048948     0.16300
H470        H  0.37301961  0.91132361  0.48098945     0.12300
H471        H  0.47718358  0.82847412  0.39730202     0.15100
H472        H  0.41721565  0.76002223  0.34465230     0.14900
C473        C  0.09167059  0.83007569  0.46473719    -0.18000
C474        C  0.06948896  0.81167699  0.44907702    -0.20200
C475        C  0.06755876  0.81340873  0.41585345     0.20500
C476        C  0.08825563  0.83361876  0.39810958    -0.03100
C477        C  0.11107446  0.85115135  0.41384147    -0.06100
C478        C  0.11254530  0.84979945  0.44735836     0.22400
C479        C  0.13247975  0.86978906  0.39606304     0.18900
C480        C  0.13058803  0.87138672  0.36280064    -0.17600
C481        C  0.10763225  0.85470970  0.34722972    -0.19800
C482        C  0.08644975  0.83558655  0.36463111     0.20400
C483        C  0.06401929  0.81712680  0.34916023    -0.32900
C484        C  0.04421834  0.79554075  0.36675020     0.01100
C485        C  0.04575339  0.79427451  0.39999059    -0.24200
C486        C  0.13478879  0.86839131  0.46289716    -0.28800
C487        C  0.15605715  0.88678752  0.44529013     0.06800
C488        C  0.15517321  0.88690704  0.41195427    -0.27400
H489        H  0.09264815  0.82854958  0.49043723     0.11500
H490        H  0.05383645  0.79606080  0.46295519     0.12600
H491        H  0.14682969  0.88563083  0.34883505     0.11700
H492        H  0.10665368  0.85624444  0.32153093     0.11000
H493        H  0.06280448  0.81748944  0.32342396     0.16300
H494        H  0.03039006  0.77731099  0.41331133     0.12300
H495        H  0.13557069  0.86878755  0.48866249     0.15100
H496        H  0.17153962  0.90178201  0.39856133     0.14900
C497        C  0.18737231  0.33053319  0.94770527    -0.18000
C498        C  0.16485952  0.34839764  0.96356664    -0.20200
C499        C  0.14070475  0.35924108  0.94691210     0.20500
C500        C  0.13939947  0.35241242  0.91382294    -0.03100
C501        C  0.16254172  0.33566107  0.89761615    -0.06100
C502        C  0.18644106  0.32405316  0.91476713     0.20800
C503        C  0.16171927  0.33039258  0.86431583     0.18900
C504        C  0.13766309  0.34152753  0.84761514    -0.17600
C505        C  0.11451971  0.35731166  0.86375640    -0.19800
C506        C  0.11512195  0.36276851  0.89685690     0.20400
C507        C  0.09220293  0.37941602  0.91313792    -0.32900
C508        C  0.09372826  0.38765290  0.94587466     0.01100
C509        C  0.11808768  0.37754148  0.96259490    -0.24200
C510        C  0.20867354  0.30535123  0.89880504    -0.28800
C511        C  0.20760802  0.29905417  0.86585221     0.06800
C512        C  0.18465720  0.31311302  0.84850485    -0.27400
H513        H  0.20559360  0.32193504  0.96120219     0.11500
H514        H  0.16627312  0.35349189  0.98894263     0.12600
H515        H  0.13663239  0.33766228  0.82207308     0.11700
H516        H  0.09619611  0.36554897  0.85028967     0.11000
H517        H  0.07377267  0.38814171  0.90001878     0.16300
H518        H  0.11951202  0.38441178  0.98772598     0.12300
H519        H  0.22642629  0.29444122  0.91207975     0.15100
H520        H  0.18384688  0.30792691  0.82307513     0.14900
C521        C  0.40006165  0.30599434  0.89299202    -0.18000
C522        C  0.37907292  0.28776487  0.87516321    -0.20200
C523        C  0.35124383  0.30030793  0.87815774     0.20500
C524        C  0.34443622  0.33141029  0.89921243    -0.03100
C525        C  0.36575996  0.35084567  0.91616159    -0.06100
C526        C  0.39374592  0.33814746  0.91301125     0.20800
C527        C  0.35909568  0.38341847  0.93579441     0.18900
C528        C  0.33121756  0.39572504  0.93891710    -0.17600
C529        C  0.30998238  0.37572685  0.92281117    -0.19800
C530        C  0.31637230  0.34360889  0.90287034     0.20400
C531        C  0.29520819  0.32327745  0.88670062    -0.32900
C532        C  0.30188948  0.29188437  0.86616026     0.01100
C533        C  0.33002908  0.28207121  0.86071583    -0.24200
C534        C  0.41496176  0.35860521  0.92913782    -0.28800
C535        C  0.40856704  0.39223154  0.94769253     0.06800
C536        C  0.38046877  0.40383603  0.95133849    -0.27400
H537        H  0.42126839  0.29518816  0.89088858     0.11500
H538        H  0.38453442  0.26349420  0.85938217     0.12600
H539        H  0.32583590  0.42087087  0.95381163     0.11700
H540        H  0.28859474  0.38561431  0.92571294     0.11000
H541        H  0.27353540  0.33138562  0.89046830     0.16300
H542        H  0.33545017  0.26011784  0.84302114     0.12300
H543        H  0.43649316  0.34937349  0.92612176     0.15100
H544        H  0.37516613  0.42946708  0.96575369     0.14900
C545        C  0.10487309  0.68135352  0.12021935    -0.18000
C546        C  0.12635825  0.69865943  0.13779736    -0.20200
C547        C  0.15426712  0.69384085  0.12830625     0.20500
C548        C  0.16070015  0.67138100  0.10089055    -0.03100
C549        C  0.13906911  0.65349680  0.08342690    -0.06100
C550        C  0.11102286  0.65861515  0.09311331     0.20800
C551        C  0.14551709  0.63041666  0.05637006     0.18900
C552        C  0.17345251  0.62576472  0.04681836    -0.17600
C553        C  0.19489244  0.64414567  0.06380449    -0.19800
C554        C  0.18872693  0.66703288  0.09080743     0.20400
C555        C  0.20997366  0.68636082  0.10755570    -0.32900
C556        C  0.20344447  0.70934766  0.13433284     0.01100
C557        C  0.17582994  0.71185908  0.14530575    -0.24200
C558        C  0.08965177  0.64029306  0.07588472    -0.28800
C559        C  0.09599011  0.61639405  0.04941753     0.06800
C560        C  0.12394604  0.61192276  0.03961599    -0.27400
H561        H  0.08344865  0.68557691  0.12791990     0.11500
H562        H  0.12113646  0.71613939  0.15863701     0.12600
H563        H  0.17870740  0.60803838  0.02612681     0.11700
H564        H  0.21628879  0.64048847  0.05581778     0.11000
H565        H  0.23144378  0.68453399  0.09933650     0.16300
H566        H  0.17111829  0.72874129  0.16659726     0.12300
H567        H  0.06818818  0.64332922  0.08386738     0.15100
H568        H  0.12895574  0.59350843  0.01920913     0.14900
C569        C  0.38376528  0.63341173  0.13488227    -0.18000
C570        C  0.36080448  0.64987846  0.15075311    -0.20200
C571        C  0.33976488  0.66923413  0.13364085     0.20500
C572        C  0.34178453  0.67187923  0.10018066    -0.03100
C573        C  0.36469367  0.65476385  0.08415361    -0.06100
C574        C  0.38584669  0.63566239  0.10164461     0.20800
C575        C  0.36622787  0.65626559  0.05061115     0.18900
C576        C  0.34538171  0.67607130  0.03353720    -0.17600
C577        C  0.32307830  0.69408013  0.04951335    -0.19800
C578        C  0.32094667  0.69170978  0.08271962     0.20400
C579        C  0.29853218  0.70925862  0.09881937    -0.32900
C580        C  0.29675393  0.70727258  0.13203870     0.01100
C581        C  0.31706290  0.68680430  0.14937955    -0.24200
C582        C  0.40837093  0.61834417  0.08549891    -0.28800
C583        C  0.40959754  0.61900802  0.05220858     0.06800
C584        C  0.38841961  0.63750702  0.03478622    -0.27400
H585        H  0.39981669  0.61869498  0.14857535     0.11500
H586        H  0.35957154  0.64765965  0.17642181     0.12600
H587        H  0.34636659  0.67771275  0.00783106     0.11700
H588        H  0.30733437  0.70951939  0.03587592     0.11000
H589        H  0.28287334  0.72564510  0.08571918     0.16300
H590        H  0.31599757  0.68651025  0.17510232     0.12300
H591        H  0.42423403  0.60252968  0.09866761     0.15100
H592        H  0.38922061  0.63705590  0.00901578     0.14900
C593        C  0.46004852  0.69888750  0.19618055    -0.18000
C594        C  0.46009301  0.67585092  0.16848401    -0.20200
C595        C  0.47712205  0.64205873  0.16610290     0.20500
C596        C  0.49371867  0.63072176  0.19213361    -0.03100
C597        C  0.49401927  0.65437287  0.21990844    -0.06100
C598        C  0.47721900  0.68872370  0.22184107     0.20800
C599        C  0.01128690  0.64163551  0.24417263     0.18900
C600        C  0.02680189  0.60634459  0.24286604    -0.17600
C601        C  0.02619888  0.58240635  0.21569659    -0.19800
C602        C  0.01048352  0.59378017  0.18919252     0.20400
C603        C  0.01083915  0.57099675  0.16124303    -0.32900
C604        C  0.49531508  0.58599048  0.13541257     0.01100
C605        C  0.47836226  0.61999895  0.13786405    -0.24200
C606        C  0.47806040  0.71247614  0.24925653    -0.28800
C607        C  0.49633377  0.70333409  0.27429286     0.06800
C608        C  0.01253125  0.66643684  0.27085688    -0.27400
H609        H  0.44692109  0.72503767  0.19732563     0.11500
H610        H  0.44698802  0.68467129  0.14879514     0.12600
H611        H  0.03949430  0.59732794  0.26283599     0.11700
H612        H  0.03842034  0.55536068  0.21520536     0.11000
H613        H  0.02334469  0.54422285  0.15992206     0.16300
H614        H  0.46647404  0.62974182  0.11748295     0.12300
H615        H  0.46467874  0.73831635  0.25098056     0.15100
H616        H  0.02633565  0.65886929  0.29025373     0.14900
C617        C  0.14468415  0.30698903  0.61094474    -0.18000
C618        C  0.12270300  0.29209185  0.62943485    -0.20200
C619        C  0.09493366  0.30058154  0.62149264     0.20500
C620        C  0.08916953  0.32320374  0.59411145    -0.03100
C621        C  0.11137915  0.33844239  0.57559931    -0.06100
C622        C  0.13928921  0.33089983  0.58440297     0.20800
C623        C  0.10564141  0.36178660  0.54863215     0.18900
C624        C  0.07785008  0.36814913  0.53952564    -0.17600
C625        C  0.05582375  0.35258106  0.55762776    -0.19800
C626        C  0.06123563  0.33068837  0.58527681     0.20400
C627        C  0.03928353  0.31552175  0.60394467    -0.32900
C628        C  0.04502746  0.29290683  0.63111817     0.01100
C629        C  0.07281860  0.28616761  0.64007887    -0.24200
C630        C  0.16123912  0.34861843  0.56725936    -0.28800
C631        C  0.15553506  0.37441290  0.54183630     0.06800
C632        C  0.12772870  0.37956371  0.53193661    -0.27400
H633        H  0.16590811  0.30022940  0.61763109     0.11500
H634        H  0.12742515  0.27401767  0.65001082     0.12600
H635        H  0.07313782  0.38562602  0.51862091     0.11700
H636        H  0.03454615  0.35804811  0.55019821     0.11000
H637        H  0.01780700  0.32002690  0.59678718     0.16300
H638        H  0.07713438  0.26856069  0.66103908     0.12300
H639        H  0.18257976  0.34439429  0.57502033     0.15100
H640        H  0.12316805  0.39891050  0.51204353     0.14900
C641        C  0.37498863  0.39114287  0.63084298    -0.18000
C642        C  0.39765045  0.37380717  0.64643473    -0.20200
C643        C  0.41395297  0.34486804  0.63110264     0.20500
C644        C  0.40753766  0.33366250  0.59957212    -0.03100
C645        C  0.38459318  0.35092274  0.58393327    -0.06100
C646        C  0.36822156  0.37971542  0.59971379     0.20800
C647        C  0.37805768  0.33937669  0.55249773     0.18900
C648        C  0.39463868  0.31098860  0.53697541    -0.17600
C649        C  0.41733953  0.29382618  0.55250137    -0.19800
C650        C  0.42385421  0.30484967  0.58376031     0.20400
C651        C  0.44595196  0.28675787  0.59976347    -0.32900
C652        C  0.45144226  0.29617109  0.63164371     0.01100
C653        C  0.43604006  0.32607932  0.64695126    -0.24200
C654        C  0.34561303  0.39691124  0.58388146    -0.28800
C655        C  0.33922554  0.38563454  0.55262804     0.06800
C656        C  0.35529074  0.35682088  0.53702422    -0.27400
H657        H  0.36266511  0.41335889  0.64318433     0.11500
H658        H  0.40229937  0.38281893  0.67057010     0.12600
H659        H  0.38999463  0.30196151  0.51284460     0.11700
H660        H  0.42968566  0.27166464  0.54013872     0.11000
H661        H  0.45819820  0.26399528  0.58793674     0.16300
H662        H  0.44043110  0.33329135  0.67155439     0.12300
H663        H  0.33326425  0.41970854  0.59555169     0.15100
H664        H  0.35050080  0.34887670  0.51266524     0.14900
C665        C  0.41687966  0.10609147  0.56325028    -0.18000
C666        C  0.43799377  0.12386714  0.58109141    -0.20200
C667        C  0.43175456  0.15508470  0.60200284     0.20500
C668        C  0.40388038  0.16830837  0.60521086    -0.03100
C669        C  0.38254266  0.15031928  0.58720316    -0.06100
C670        C  0.38914971  0.11902904  0.56623570     0.20800
C671        C  0.35468563  0.16367425  0.59010289     0.18900
C672        C  0.34854749  0.19532890  0.61071391    -0.17600
C673        C  0.36970493  0.21314823  0.62863620    -0.19800
C674        C  0.39742125  0.19989656  0.62598718     0.20400
C675        C  0.41896959  0.21856984  0.64281378    -0.32900
C676        C  0.44697502  0.20702360  0.63820299     0.01100
C677        C  0.45307951  0.17436696  0.61870958    -0.24200
C678        C  0.36787165  0.10048422  0.54912657    -0.28800
C679        C  0.33980186  0.11209006  0.55299978     0.06800
C680        C  0.33344999  0.14452409  0.57291436    -0.27400
H681        H  0.42223539  0.08210461  0.54715856     0.11500
H682        H  0.45927072  0.11348244  0.57826630     0.12600
H683        H  0.32736251  0.20625722  0.61303507     0.11700
H684        H  0.36444001  0.23760400  0.64430575     0.11000
H685        H  0.41412619  0.24317267  0.65851793     0.16300
H686        H  0.47460973  0.16536434  0.61519632     0.12300
H687        H  0.37317942  0.07590557  0.53357339     0.15100
H688        H  0.31194445  0.15380903  0.57606885     0.14900
C689        C  0.06737303  0.18206598  0.55152623    -0.18000
C690        C  0.08974077  0.16262419  0.53670016    -0.20200
C691        C  0.11114336  0.14573569  0.55487992     0.20500
C692        C  0.10995045  0.14829236  0.58837586    -0.03100
C693        C  0.08697146  0.16692860  0.60336191    -0.06100
C694        C  0.06572842  0.18421848  0.58480542     0.20800
C695        C  0.08531871  0.16838656  0.63688474     0.18900
C696        C  0.10689852  0.15195615  0.65505189    -0.17600
C697        C  0.12990475  0.13407575  0.64019510    -0.19800
C698        C  0.13158831  0.13193875  0.60689998     0.20400
C699        C  0.15423421  0.11312669  0.59178417    -0.32900
C700        C  0.15502340  0.10951122  0.55851228     0.01100
C701        C  0.13350064  0.12584050  0.54019875    -0.24200
C702        C  0.04343294  0.20374755  0.59988539    -0.28800
C703        C  0.04176073  0.20518931  0.63320498     0.06800
C704        C  0.06239829  0.18692182  0.65160181    -0.27400
H705        H  0.05124034  0.19517391  0.53695591     0.11500
H706        H  0.09035767  0.16092575  0.51097992     0.12600
H707        H  0.10604660  0.15309987  0.68078425     0.11700
H708        H  0.14629846  0.12164114  0.65476929     0.11000
H709        H  0.17066268  0.09985071  0.60587443     0.16300
H710        H  0.13411611  0.12270624  0.51454223     0.12300
H711        H  0.02764574  0.21857442  0.58583809     0.15100
H712        H  0.06126616  0.18896852  0.67730949     0.14900
C713        C  0.03207473  0.41632746  0.78432920    -0.18000
C714        C  0.03322091  0.39087521  0.75797616    -0.20200
C715        C  0.01434444  0.35911704  0.75518777     0.20500
C716        C  0.49477232  0.35223877  0.78008775    -0.03100
C717        C  0.49415467  0.37815089  0.80649932    -0.06100
C718        C  0.01249345  0.40988450  0.80875037     0.20800
C719        C  0.47699632  0.36914472  0.83283238     0.18900
C720        C  0.46015957  0.33508370  0.83231979    -0.17600
C721        C  0.46040843  0.30976863  0.80599839    -0.19800
C722        C  0.47777942  0.31793543  0.77985925     0.20400
C723        C  0.47842945  0.29242746  0.75351985    -0.32900
C724        C  0.49654484  0.29993527  0.72779668     0.01100
C725        C  0.01528051  0.33335796  0.72888149    -0.24200
C726        C  0.01210265  0.43397621  0.83608439    -0.28800
C727        C  0.49450048  0.42778515  0.86036742     0.06800
C728        C  0.47737864  0.39386203  0.85953768    -0.27400
H729        H  0.04686079  0.44061490  0.78589377     0.11500
H730        H  0.04886012  0.39607570  0.73973495     0.12600
H731        H  0.44684926  0.32804008  0.85234133     0.11700
H732        H  0.44720409  0.28361898  0.80621723     0.11000
H733        H  0.46467729  0.26687350  0.75296684     0.16300
H734        H  0.03102231  0.33754862  0.71055607     0.12300
H735        H  0.02690092  0.45818212  0.83836947     0.15100
H736        H  0.46473170  0.38625069  0.88013364     0.14900
C737        C  0.34070004  0.16125337  0.96913247    -0.18000
C738        C  0.31820720  0.17784692  0.95270824    -0.20200
C739        C  0.31926133  0.18190926  0.91953458     0.20500
C740        C  0.34338055  0.16960060  0.90275004    -0.03100
C741        C  0.36647356  0.15420794  0.91945223    -0.06100
C742        C  0.36490943  0.14929244  0.95275200     0.20800
C743        C  0.39093768  0.14316673  0.90277619     0.18900
C744        C  0.39198306  0.14727108  0.86956916    -0.17600
C745        C  0.36887426  0.16169482  0.85295380    -0.19800
C746        C  0.34445374  0.17274310  0.86929242     0.20400
C747        C  0.32137555  0.18793500  0.85290526    -0.32900
C748        C  0.29827848  0.20281994  0.86975925     0.01100
C749        C  0.29697467  0.19899483  0.90291452    -0.24200
C750        C  0.38730025  0.13160748  0.96891815    -0.28800
C751        C  0.41167148  0.12041028  0.95240702     0.06800
C752        C  0.41359129  0.12711680  0.91948427    -0.27400
H753        H  0.33919105  0.15787816  0.99469573     0.11500
H754        H  0.29988808  0.18724028  0.96593920     0.12600
H755        H  0.41056845  0.13884389  0.85639177     0.11700
H756        H  0.37016360  0.16442577  0.82732054     0.11000
H757        H  0.32224103  0.19123318  0.82726534     0.16300
H758        H  0.27901589  0.21050546  0.91573837     0.12300
H759        H  0.38564325  0.12587089  0.99421972     0.15100
H760        H  0.43208486  0.11752763  0.90660710     0.14900
C761        C  0.10505922  0.19754948  0.89361697    -0.18000
C762        C  0.12655764  0.21397047  0.87520467    -0.20200
C763        C  0.15436405  0.20260177  0.88018122     0.20500
C764        C  0.16068205  0.17481242  0.90409521    -0.03100
C765        C  0.13888363  0.15713490  0.92180736    -0.06100
C766        C  0.11090313  0.16848332  0.91650541     0.20800
C767        C  0.14507585  0.12768819  0.94443420     0.18900
C768        C  0.17301344  0.11736679  0.95014850    -0.17600
C769        C  0.19469301  0.13591947  0.93337854    -0.19800
C770        C  0.18873679  0.16430509  0.91002462     0.20400
C771        C  0.21027359  0.18255772  0.89261395    -0.32900
C772        C  0.20398755  0.21024505  0.86883059     0.01100
C773        C  0.17599433  0.21883954  0.86189261    -0.24200
C774        C  0.08922346  0.14964768  0.93338765    -0.28800
C775        C  0.09511197  0.11854171  0.95464121     0.06800
C776        C  0.12321862  0.10841998  0.96044369    -0.27400
H777        H  0.08380462  0.20713360  0.88962674     0.11500
H778        H  0.12146885  0.23584090  0.85727008     0.12600
H779        H  0.17809968  0.09490766  0.96759954     0.11700
H780        H  0.21608917  0.12765273  0.93835087     0.11000
H781        H  0.23188511  0.17569272  0.89780864     0.16300
H782        H  0.17104481  0.23846714  0.84240620     0.12300
H783        H  0.06774688  0.15779240  0.92870281     0.15100
H784        H  0.12817351  0.08473720  0.97690051     0.14900
C785        C  0.45987612  0.12012950  0.76538207    -0.18000
C786        C  0.46125252  0.09564516  0.79226553    -0.20200
C787        C  0.48184761  0.10185689  0.81538713     0.20500
C788        C  0.00021394  0.13760264  0.81084244    -0.03100
C789        C  0.99836692  0.16204054  0.78362113    -0.06100
C790        C  0.47901664  0.15135774  0.76115280     0.20800
C791        C  0.01671539  0.19456621  0.77997144     0.18900
C792        C  0.03652460  0.20258918  0.80356611    -0.17600
C793        C  0.03811363  0.17871635  0.83065861    -0.19800
C794        C  0.02006300  0.14624078  0.83455059     0.20400
C795        C  0.02144552  0.12236491  0.86178109    -0.32900
C796        C  0.00371952  0.08935972  0.86532076     0.01100
C797        C  0.48332637  0.07767351  0.84264354    -0.24200
C798        C  0.47791021  0.17597853  0.73421770    -0.28800
C799        C  0.99565110  0.21004952  0.72875488     0.06800
C800        C  0.01534233  0.21810269  0.75255124    -0.27400
H801        H  0.44381263  0.11463545  0.74787646     0.11500
H802        H  0.44617851  0.07185894  0.79498095     0.12600
H803        H  0.05084886  0.22732647  0.80103768     0.11700
H804        H  0.05358009  0.18552483  0.84849526     0.11000
H805        H  0.03629469  0.12943682  0.88033626     0.16300
H806        H  0.46822420  0.05406324  0.84620688     0.12300
H807        H  0.46207932  0.17089319  0.71633414     0.15100
H808        H  0.03002734  0.24230239  0.74940043     0.14900
C809        C  0.32900928  0.87962719  0.04390230    -0.18000
C810        C  0.30744632  0.86217004  0.06169526    -0.20200
C811        C  0.31359545  0.83718703  0.08741659     0.20500
C812        C  0.34174877  0.82882581  0.09466729    -0.03100
C813        C  0.36345074  0.84579268  0.07636079    -0.06100
C814        C  0.35707243  0.87189528  0.05123236     0.20800
C815        C  0.39154990  0.83744091  0.08379908     0.18900
C816        C  0.39771511  0.81214528  0.10926524    -0.17600
C817        C  0.37624383  0.79561483  0.12754682    -0.19800
C818        C  0.34827588  0.80399567  0.12056497     0.20400
C819        C  0.32673849  0.78781173  0.13900121    -0.32900
C820        C  0.29870464  0.79518333  0.13150711     0.01100
C821        C  0.29219235  0.82030047  0.10599285    -0.24200
C822        C  0.37887505  0.89088487  0.03472574    -0.28800
C823        C  0.40696418  0.88373136  0.04282439     0.06800
C824        C  0.41306164  0.85579026  0.06656708    -0.27400
H825        H  0.32373696  0.89949847  0.02460790     0.11500
H826        H  0.28596862  0.86867051  0.05563423     0.12600
H827        H  0.41918026  0.80563294  0.11536540     0.11700
H828        H  0.38152060  0.77641232  0.14726995     0.11000
H829        H  0.33170482  0.76859554  0.15883554     0.16300
H830        H  0.27057271  0.82584107  0.10015873     0.12300
H831        H  0.37395671  0.91232796  0.01638732     0.15100
H832        H  0.43456491  0.85029711  0.07317502     0.14900
C833        C  0.18831854  0.83751297  0.05319449    -0.18000
C834        C  0.16611008  0.85507668  0.03702319    -0.20200
C835        C  0.14060682  0.86197884  0.05262128     0.20500
C836        C  0.13749134  0.85155134  0.08495768    -0.03100
C837        C  0.16011722  0.83476285  0.10147907    -0.06100
C838        C  0.18548911  0.82710040  0.08533789     0.20800
C839        C  0.15726850  0.82527691  0.13403067     0.18900
C840        C  0.13186374  0.83264183  0.14973780    -0.17600
C841        C  0.10927807  0.84877356  0.13322944    -0.19800
C842        C  0.11186075  0.85820574  0.10083990     0.20400
C843        C  0.08956328  0.87521010  0.08423579    -0.32900
C844        C  0.09290939  0.88672158  0.05237500     0.01100
C845        C  0.11836637  0.87992571  0.03665292    -0.24200
C846        C  0.20729288  0.80822365  0.10143189    -0.28800
C847        C  0.20425919  0.79805803  0.13356163     0.06800
C848        C  0.17966732  0.80772877  0.15004546    -0.27400
H849        H  0.20771151  0.83203469  0.04055043     0.11500
H850        H  0.16882831  0.86307105  0.01224988     0.12600
H851        H  0.12937057  0.82552845  0.17471289     0.11700
H852        H  0.08983512  0.85406828  0.14583131     0.11000
H853        H  0.07019750  0.88170677  0.09655244     0.16300
H854        H  0.12094957  0.88933896  0.01215789     0.12300
H855        H  0.22621777  0.80020299  0.08876285     0.15100
H856        H  0.17758795  0.79987750  0.17494120     0.14900
C857        C  0.03077447  0.81702877  0.16221459    -0.18000
C858        C  0.03168875  0.79452523  0.19010108    -0.20200
C859        C  0.01656130  0.80649116  0.21712429     0.20500
C860        C  0.00064496  0.84171883  0.21615067    -0.03100
C861        C  0.00039835  0.86506444  0.18832478    -0.06100
C862        C  0.01520765  0.85227789  0.16115074     0.20800
C863        C  0.48473223  0.90373378  0.19140171     0.18900
C864        C  0.46836811  0.91431463  0.21785998    -0.17600
C865        C  0.46753112  0.89001115  0.24484725    -0.19800
C866        C  0.48351512  0.85513785  0.24613713     0.20400
C867        C  0.48275023  0.83057847  0.27306366    -0.32900
C868        C  0.99990145  0.79406563  0.27117661     0.01100
C869        C  0.01684863  0.78368712  0.24499727    -0.24200
C870        C  0.01402588  0.87477773  0.13328830    -0.28800
C871        C  0.99906857  0.91067271  0.13234902     0.06800
C872        C  0.48524140  0.92749853  0.16387982    -0.27400
H873        H  0.04232973  0.80694713  0.14150401     0.11500
H874        H  0.04391153  0.76747562  0.19039433     0.12600
H875        H  0.45594467  0.94116802  0.21754436     0.11700
H876        H  0.45445950  0.89860141  0.26479923     0.11000
H877        H  0.46911627  0.83812768  0.29281265     0.16300
H878        H  0.02987529  0.75745299  0.24608375     0.12300
H879        H  0.02484864  0.86431054  0.11221902     0.15100
H880        H  0.47317404  0.95468142  0.16304917     0.14900
Zr881      Zr  0.50060961  0.92821027  0.02492072     2.17500
O882        O  0.00460667  0.85867962  0.99966585    -0.51500
O883        O  0.50000837  0.91650384  0.08126507    -0.74700
O884        O  0.54521067  0.89874228  0.04076251    -0.81500
O885        O  0.92306634  0.93700113  0.01249699    -0.83200
O886        O  0.57988758  0.94139692  0.02607231    -0.78800
O887        O  0.95645761  0.89436563  0.02996337    -0.90500
O888        O  0.49868910  0.97577029  0.10719102    -0.76400
O889        O  0.53079464  0.97733226  0.04592143    -0.85900
O890        O  0.96990426  0.97483960  0.04025820    -0.85600
O891        O  0.52932526  0.94869169  0.98099703    -0.72400
O892        O  0.97561010  0.94791735  0.97485756    -0.84500
Zr893      Zr  0.00173097  0.07377139  0.97711467     2.26400
Zr894      Zr  0.55880101  0.99932970  0.00257327     2.06300
Zr895      Zr  0.94493808  0.99826192  0.99518574     2.10000
Zr896      Zr  0.99735019  0.02486207  0.06408603     1.78800
O897        O  0.91193755  0.97786306  0.95452717    -0.93300
O898        O  0.54439534  0.03576621  0.09831293    -0.41100
O899        O  0.97188570  0.04993733  0.01918383    -0.77800
O900        O  0.53065797  0.05210855  0.02345212    -0.96500
O901        O  0.53272487  0.02325211  0.95850473    -0.89800
O902        O  0.97396245  0.02309799  0.95368621    -0.92600
C903        C  0.49938986  0.93752000  0.10663542     1.01200
C904        C  0.93083860  0.90444811  0.02563635     1.14100
C905        C  0.57104940  0.90921942  0.03887752     1.04900
O906        O  0.59190007  0.02453566  0.04150423    -0.94800
O907        O  0.58251553  0.05561952  0.97925484    -0.90500
O908        O  0.54996501  0.10216875  0.96685597    -0.83600
C909        C  0.57530068  0.08942524  0.96795791     1.11500
O910        O  0.00871315  0.90834952  0.91053518    -0.96700
Zr911      Zr  0.50248892  0.97423688  0.93744033     1.88900
O912        O  0.00351585  0.08768888  0.92095524    -0.73400
O913        O  0.59362675  0.96998366  0.96721416    -0.52600
O914        O  0.54437393  0.96512537  0.90510172    -0.97300
O915        O  0.96521442  0.95870910  0.89986466    -0.54500
O916        O  0.00394633  0.02874494  0.89443809    -0.73900
C917        C  0.00381283  0.06695986  0.89541287     0.98500
O918        O  0.00059675  0.14041981  0.99927702    -0.62700
O919        O  0.90879283  0.01761313  0.03304421    -0.57500
O920        O  0.95729375  0.10407472  0.96348125    -0.94200
O921        O  0.92349850  0.05800747  0.97386941    -0.92600
O922        O  0.95495040  0.03582617  0.09516877    -0.93000
O923        O  0.99317435  0.09130600  0.08634755    -0.91800
C924        C  0.93185336  0.09193361  0.96358149     1.17300
H925        H  0.95727467  0.96422731  0.05614093     0.33200
H926        H  0.54260923  0.07332262  0.03088799     0.44100
H927        H  0.96271210  0.03317604  0.93652975     0.37600
H928        H  0.54059520  0.92661180  0.97373068     0.34100
H929        H  0.53762774  0.04207963  0.12000824     0.25900
H930        H  0.59104593  0.98362730  0.94660711     0.31800
H931        H  0.55192864  0.99218836  0.90175946     0.37700
H932        H  0.95932214  0.02619606  0.11681310     0.32200
H933        H  0.91324287  0.04546563  0.03862492     0.31100
H934        H  0.89353887  0.97804620  0.96538073     0.32800
H935        H  0.95588526  0.98432391  0.89549459     0.31700
H936        H  0.51236688  0.11182481  0.06943400     0.35700
H937        H  0.98493640  0.13975791  0.01474370     0.28400
H938        H  0.50729077  0.84401970  0.02314379     0.32700
H939        H  0.50495567  0.90931692  0.89354244     0.35500
H940        H  0.89151909  0.01933143  0.02029918     0.28100
H941        H  0.52254774  0.14573623  0.00902227     0.41000
H942        H  0.60967593  0.01083576  0.03651358     0.31100
H943        H  0.55210932  0.00858807  0.10014521     0.38700
H944        H  0.95203973  0.94431087  0.91394837     0.30500
H945        H  0.61176573  0.97992428  0.97514226     0.30600
H946        H  0.51672955  0.85957566  0.98964610     0.30900
C947        C  0.99476538  0.21488451  0.66594407     0.45300
H948        H  0.99376614  0.18193407  0.66635667    -0.03700
C949        C  0.49746430  0.28967987  0.66547899     0.45400
H950        H  0.49817710  0.32258761  0.66394643    -0.03700
C951        C  0.52114462  0.22868289  0.65045246    -0.17400
C952        C  0.97007185  0.23441065  0.64888518    -0.17200
C953        C  0.49626495  0.23204859  0.70094951    -0.17500
C954        C  0.52224713  0.26930368  0.64895711    -0.17500
C955        C  0.97155884  0.27508217  0.64800299    -0.17100
C956        C  0.99676697  0.27533794  0.69803297    -0.17400
Zr957      Zr  0.00124395  0.43292335  0.97297775     2.17500
O958        O  0.50286802  0.36568202  0.98725991    -0.51500
O959        O  0.99418468  0.42380715  0.91701926    -0.74700
O960        O  0.95558947  0.40341736  0.96322626    -0.81500
O961        O  0.58008269  0.44837537  0.97337273    -0.83200
O962        O  0.92345830  0.45143932  0.97357593    -0.78800
O963        O  0.54610307  0.40599101  0.95664793    -0.90500
O964        O  0.00119331  0.48326643  0.89270928    -0.76400
O965        O  0.97218373  0.48501452  0.95400523    -0.85900
O966        O  0.53065797  0.48694328  0.95206294    -0.85600
O967        O  0.97365638  0.45358382  0.01786870    -0.72400
O968        O  0.52910405  0.45424218  0.01675054    -0.84500
Zr969      Zr  0.00324841  0.57710132  0.02270199     2.26400
Zr970      Zr  0.94568640  0.50725728  0.99859116     2.06300
Zr971      Zr  0.55793589  0.50666407  0.99659757     2.10000
Zr972      Zr  0.00217134  0.53495038  0.93380170     1.78800
O973        O  0.59252575  0.48129938  0.03350722    -0.93300
O974        O  0.96231116  0.55290335  0.90095266    -0.41100
O975        O  0.52926946  0.55974938  0.97737066    -0.77800
O976        O  0.97495889  0.55887215  0.97812254    -0.96500
O977        O  0.97322257  0.52680129  0.04265094    -0.89800
O978        O  0.53104781  0.52750688  0.04155927    -0.92600
C979        C  0.99653282  0.44563222  0.89227826     1.01200
C980        C  0.57181674  0.41647401  0.95952399     1.14100
C981        C  0.93047791  0.41699815  0.96337259     1.04900
O982        O  0.91137171  0.53830840  0.96391407    -0.94800
O983        O  0.92478254  0.56355672  0.02535312    -0.90500
O984        O  0.95909747  0.60757251  0.03820525    -0.83600
C985        C  0.93352546  0.59602823  0.03772546     1.11500
O986        O  0.50035116  0.40804313  0.07850157    -0.96700
Zr987      Zr  0.00202754  0.47476273  0.06145619     1.88900
O988        O  0.00056971  0.58589226  0.07918371    -0.73400
O989        O  0.91164817  0.47774299  0.03473996    -0.52600
O990        O  0.96048286  0.45489558  0.09114802    -0.97300
O991        O  0.54168342  0.46012714  0.09331351    -0.54500
O992        O  0.99978602  0.52534969  0.10312093    -0.73900
C993        C  0.99918461  0.56351663  0.10368920     0.98500
O994        O  0.50126855  0.64893233  0.00645478    -0.62700
O995        O  0.59299242  0.53341636  0.96033895    -0.57500
O996        O  0.54755422  0.60737318  0.03709744    -0.94200
O997        O  0.58054897  0.56312979  0.02077856    -0.92600
O998        O  0.54164364  0.55344306  0.90032645    -0.93000
O999        O  0.50179641  0.60664266  0.91489230    -0.91800
C1000       C  0.57304672  0.59541942  0.03455185     1.17300
H1001       H  0.54236197  0.47803833  0.93467217     0.33200
H1002       H  0.96372353  0.58124507  0.97158278     0.44100
H1003       H  0.54282496  0.53614549  0.05875960     0.37600
H1004       H  0.96175119  0.43197764  0.02475323     0.34100
H1005       H  0.96510110  0.53871225  0.88056709     0.25900
H1006       H  0.91755260  0.48657154  0.05612977     0.31800
H1007       H  0.95321908  0.47976483  0.10062223     0.37700
H1008       H  0.53861003  0.53888389  0.88018469     0.32200
H1009       H  0.61061357  0.52028943  0.96660535     0.31100
H1010       H  0.61044704  0.49284618  0.02612613     0.32800
H1011       H  0.55136172  0.48555728  0.09748561     0.31700
H1012       H  0.00444488  0.61954420  0.93285364     0.35700
H1013       H  0.51689170  0.65132351  0.99106346     0.28400
H1014       H  0.99840513  0.34830721  0.97222050     0.32700
H1015       H  0.00284241  0.40425541  0.09959063     0.35500
H1016       H  0.58842977  0.52171042  0.93940619     0.28100
H1017       H  0.98645611  0.64988655  0.99385498     0.41000
H1018       H  0.90015977  0.51628142  0.95502052     0.31100
H1019       H  0.94613827  0.53945303  0.91100141     0.38700
H1020       H  0.55435079  0.44561800  0.07869352     0.30500
H1021       H  0.89412414  0.49241371  0.03077628     0.30600
H1022       H  0.98891336  0.36132891  0.00641650     0.30900
C1023       C  0.99814742  0.78731407  0.33371202     0.45300
H1024       H  0.99780077  0.82027054  0.33408193    -0.03700
C1025       C  0.49900622  0.71094236  0.33666053     0.45400
H1026       H  0.49935851  0.67798081  0.33709588    -0.03700
C1027       C  0.52354357  0.77081786  0.35290277    -0.17400
C1028       C  0.97294974  0.76819127  0.35057967    -0.17200
C1029       C  0.49783175  0.77024202  0.30319618    -0.17500
C1030       C  0.52449807  0.73012792  0.35244820    -0.17500
C1031       C  0.97384162  0.72750917  0.35082571    -0.17100
C1032       C  0.99883069  0.72762741  0.30064651    -0.17400
Zr1033     Zr  0.74855862  0.92271412  0.48027237     2.17500
O1034       O  0.74980226  0.85371907  0.49748234    -0.51500
O1035       O  0.75107671  0.91288153  0.42334826    -0.74700
O1036       O  0.70366407  0.89501820  0.46444779    -0.81500
O1037       O  0.82686393  0.93922725  0.48201142    -0.83200
O1038       O  0.66942323  0.93700385  0.48171710    -0.78800
O1039       O  0.79413353  0.89418097  0.46694786    -0.90500
O1040       O  0.74627488  0.97343702  0.40010293    -0.76400
O1041       O  0.71717268  0.97285501  0.46273705    -0.85900
O1042       O  0.77649505  0.97544636  0.46016319    -0.85600
O1043       O  0.72106502  0.94111096  0.52625238    -0.72400
O1044       O  0.77628603  0.94357021  0.52477183    -0.84500
Zr1045     Zr  0.74724958  0.06721020  0.53112992     2.26400
Zr1046     Zr  0.69089934  0.99302588  0.50835340     2.06300
Zr1047     Zr  0.80383691  0.99705816  0.50398078     2.10000
Zr1048     Zr  0.74515231  0.02461905  0.44194255     1.78800
O1049       O  0.83872896  0.97671567  0.54244096    -0.93300
O1050       O  0.70400813  0.03704386  0.40957135    -0.41100
O1051       O  0.77378862  0.04833463  0.48496101    -0.77800
O1052       O  0.71837547  0.04648579  0.48734486    -0.96500
O1053       O  0.71839683  0.01557125  0.55173971    -0.89800
O1054       O  0.77746694  0.01640315  0.54932310    -0.92600
C1055       C  0.74934165  0.93545848  0.39891297     1.01200
C1056       C  0.81959088  0.90627565  0.46913954     1.14100
C1057       C  0.67800111  0.90575758  0.46716750     1.04900
O1058       O  0.65141820  0.01630754  0.47733985    -0.94800
O1059       O  0.66911870  0.05111992  0.53234932    -0.90500
O1060       O  0.70284638  0.09400967  0.54914038    -0.83600
C1061       C  0.67731467  0.08290900  0.54641772     1.11500
O1062       O  0.74568856  0.89610807  0.58717857    -0.96700
Zr1063     Zr  0.74871976  0.96504697  0.56985120     1.88900
O1064       O  0.75204203  0.07651129  0.58769586    -0.73400
O1065       O  0.66121156  0.96200064  0.54846683    -0.52600
O1066       O  0.70849911  0.95046648  0.60372284    -0.97300
O1067       O  0.78976067  0.94792079  0.60096906    -0.54500
O1068       O  0.75002358  0.01601369  0.61167252    -0.73900
C1069       C  0.75200450  0.05413041  0.61231454     0.98500
O1070       O  0.74529510  0.13554643  0.51240335    -0.62700
O1071       O  0.83780032  0.02186269  0.46553890    -0.57500
O1072       O  0.79187754  0.09948148  0.54169309    -0.94200
O1073       O  0.82541031  0.05708920  0.52400866    -0.92600
O1074       O  0.78411550  0.04545017  0.40844386    -0.93000
O1075       O  0.74193759  0.09307965  0.42380873    -0.91800
C1076       C  0.81755858  0.08962851  0.53720712     1.17300
H1077       H  0.78841076  0.96690408  0.44284215     0.33200
H1078       H  0.70629870  0.06806920  0.48115944     0.44100
H1079       H  0.78984829  0.02580647  0.56571699     0.37600
H1080       H  0.71005827  0.91867950  0.53314688     0.34100
H1081       H  0.69439291  0.01107071  0.40818932     0.25900
H1082       H  0.66398159  0.97823713  0.56782714     0.31800
H1083       H  0.71382563  0.95958444  0.62523874     0.37700
H1084       H  0.79372735  0.02058503  0.40228536     0.32200
H1085       H  0.85558220  0.00888490  0.47138839     0.31100
H1086       H  0.85655350  0.97676338  0.53040540     0.32800
H1087       H  0.79924576  0.97347658  0.60528140     0.31700
H1088       H  0.75155401  0.10874285  0.44039758     0.35700
H1089       H  0.76039041  0.13738194  0.49627960     0.28400
H1090       H  0.74577354  0.83813858  0.47805172     0.32700
H1091       H  0.74939019  0.89652057  0.61031986     0.35500
H1092       H  0.83252887  0.00935527  0.44512666     0.28100
H1093       H  0.72786965  0.13701921  0.49990596     0.41000
H1094       H  0.63473977  0.00852667  0.48990112     0.31100
H1095       H  0.69159509  0.05346831  0.42311461     0.38700
H1096       H  0.80227133  0.93405338  0.58580444     0.30500
H1097       H  0.64191999  0.96812461  0.54171980     0.30600
H1098       H  0.73299519  0.85040396  0.51101861     0.30900
C1099       C  0.75232607  0.71530548  0.16612932     0.45300
H1100       H  0.75177655  0.68234579  0.16588433    -0.03700
C1101       C  0.75297970  0.79279022  0.16505988     0.45400
H1102       H  0.75326907  0.82577054  0.16437546    -0.03700
C1103       C  0.77767695  0.73278767  0.14897490    -0.17400
C1104       C  0.72684723  0.73372680  0.14989474    -0.17200
C1105       C  0.75288026  0.73421678  0.19939640    -0.17500
C1106       C  0.77809303  0.77352910  0.14821867    -0.17500
C1107       C  0.72731637  0.77438583  0.14932021    -0.17100
C1108       C  0.75307535  0.77525290  0.19880514    -0.17400
Zr1109     Zr  0.74653034  0.42162647  0.51727143     2.17500
O1110       O  0.74919840  0.35499154  0.49490236    -0.51500
O1111       O  0.74695989  0.40894988  0.57372445    -0.74700
O1112       O  0.79075898  0.39172300  0.53219497    -0.81500
O1113       O  0.66810996  0.43850966  0.51802306    -0.83200
O1114       O  0.82455126  0.43658210  0.51891934    -0.78800
O1115       O  0.70110678  0.39274011  0.53064343    -0.90500
O1116       O  0.75202793  0.46784526  0.59959434    -0.76400
O1117       O  0.77750488  0.47067246  0.53695865    -0.85900
O1118       O  0.71873831  0.47304915  0.53997739    -0.85600
O1119       O  0.77404305  0.44296671  0.47226711    -0.72400
O1120       O  0.71837128  0.44487153  0.47404149    -0.84500
Zr1121     Zr  0.74743919  0.56856768  0.47216794     2.26400
Zr1122     Zr  0.80393959  0.49374866  0.49277675     2.06300
Zr1123     Zr  0.69101916  0.49695837  0.49736431     2.10000
Zr1124     Zr  0.75011438  0.52136505  0.55988998     1.78800
O1125       O  0.65448091  0.47464369  0.46150779    -0.93300
O1126       O  0.79495376  0.53108034  0.58588055    -0.41100
O1127       O  0.72111834  0.54742632  0.51802363    -0.77800
O1128       O  0.77633785  0.54619936  0.51523240    -0.96500
O1129       O  0.77631277  0.51809761  0.45003684    -0.89800
O1130       O  0.71702760  0.51874814  0.45224286    -0.92600
C1131       C  0.74999614  0.42968160  0.59906786     1.01200
C1132       C  0.67564416  0.40489491  0.52934708     1.14100
C1133       C  0.81621421  0.40382287  0.53139215     1.04900
O1134       O  0.84048539  0.51816011  0.52770820    -0.94800
O1135       O  0.82583327  0.55214841  0.47017269    -0.90500
O1136       O  0.79212024  0.59583211  0.45519213    -0.83600
C1137       C  0.81762895  0.58445974  0.45718533     1.11500
O1138       O  0.74894344  0.40081112  0.41003235    -0.96700
Zr1139     Zr  0.74595795  0.46879619  0.42980214     1.88900
O1140       O  0.74291308  0.58056649  0.41599633    -0.73400
O1141       O  0.83725655  0.46621313  0.45468101    -0.52600
O1142       O  0.78655133  0.45837726  0.39552763    -0.97300
O1143       O  0.70540064  0.45254190  0.39749095    -0.54500
O1144       O  0.74409088  0.52159353  0.38973669    -0.73900
C1145       C  0.74254362  0.55973949  0.39052899     0.98500
O1146       O  0.75161938  0.63754715  0.48877327    -0.62700
O1147       O  0.65799799  0.52134995  0.53708532    -0.57500
O1148       O  0.70262553  0.60130146  0.46393472    -0.94200
O1149       O  0.66914688  0.55712476  0.47874437    -0.92600
O1150       O  0.71421225  0.53684482  0.59927624    -0.93000
O1151       O  0.75137637  0.58878870  0.58087384    -0.91800
C1152       C  0.67697279  0.59060054  0.46722255     1.17300
H1153       H  0.70712030  0.46354151  0.55725079     0.33200
H1154       H  0.78836004  0.56759850  0.52211941     0.44100
H1155       H  0.70461744  0.52900081  0.43624699     0.37600
H1156       H  0.78518874  0.42104812  0.46448780     0.34100
H1157       H  0.79025536  0.53435921  0.60867588     0.25900
H1158       H  0.84371521  0.48902802  0.44174886     0.31800
H1159       H  0.79683619  0.48389231  0.39583546     0.37700
H1160       H  0.69902776  0.54945261  0.58701767     0.32200
H1161       H  0.63941478  0.51741705  0.52735293     0.31100
H1162       H  0.65879297  0.48768992  0.44098546     0.32800
H1163       H  0.69440459  0.47734954  0.39637971     0.31700
H1164       H  0.75306953  0.60591582  0.56184178     0.35700
H1165       H  0.73587899  0.64174562  0.50374249     0.28400
H1166       H  0.73958675  0.35703284  0.47417843     0.32700
H1167       H  0.74584216  0.40254295  0.38681258     0.35500
H1168       H  0.65864057  0.50178478  0.55461451     0.28100
H1169       H  0.76842066  0.63822689  0.50237736     0.41000
H1170       H  0.85744805  0.51951045  0.51418161     0.31100
H1171       H  0.80433192  0.50491645  0.58472064     0.38700
H1172       H  0.69402360  0.43458549  0.41096937     0.30500
H1173       H  0.85371217  0.45887152  0.46753089     0.30600
H1174       H  0.73664213  0.33856016  0.50823766     0.30900
C1175       C  0.75386664  0.29134259  0.83245250     0.45300
H1176       H  0.75433810  0.32422812  0.83068171    -0.03700
C1177       C  0.75230122  0.21427581  0.83786382     0.45400
H1178       H  0.75184212  0.18144095  0.84036814    -0.03700
C1179       C  0.77850965  0.27391981  0.85090029    -0.17400
C1180       C  0.72765555  0.27572949  0.84951633    -0.17200
C1181       C  0.75462456  0.26965332  0.80021315    -0.17500
C1182       C  0.77743629  0.23341452  0.85414683    -0.17500
C1183       C  0.72675425  0.23508686  0.85224084    -0.17100
C1184       C  0.75374293  0.22870895  0.80327850    -0.17400
C1185       C  0.72255402  0.29045103  0.68973427    -0.18000
C1186       C  0.72165731  0.31321948  0.66204183    -0.20200
C1187       C  0.73714704  0.34844084  0.65956309     0.20500
C1188       C  0.75403632  0.36073245  0.68509541    -0.03100
C1189       C  0.75503762  0.33758769  0.71310991    -0.06100
C1190       C  0.73905819  0.30244012  0.71543025     0.20800
C1191       C  0.77139354  0.35009657  0.73903036     0.18900
C1192       C  0.78677082  0.38556053  0.73658080    -0.17600
C1193       C  0.78590956  0.40840732  0.70871230    -0.19800
C1194       C  0.76947847  0.39640504  0.68283974     0.20400
C1195       C  0.76788479  0.41951253  0.65493413    -0.32900
C1196       C  0.75104155  0.40720784  0.62937570     0.01100
C1197       C  0.73583965  0.37159772  0.63200151    -0.24200
C1198       C  0.73920223  0.28036546  0.74365399    -0.28800
C1199       C  0.75557667  0.29224884  0.76960977     0.06800
C1200       C  0.77169064  0.32722231  0.76703365    -0.27400
H1201       H  0.71018031  0.26354735  0.69112252     0.11500
H1202       H  0.70881411  0.30326446  0.64253134     0.12600
H1203       H  0.79932166  0.39579322  0.75632168     0.11700
H1204       H  0.79787602  0.43569058  0.70752880     0.11000
H1205       H  0.77995866  0.44664530  0.65291903     0.16300
H1206       H  0.72274109  0.36196537  0.61251096     0.12300
H1207       H  0.72592300  0.25443040  0.74565058     0.15100
H1208       H  0.78440714  0.33674011  0.78687041     0.14900
C1209       C  0.71310704  0.67966485  0.33288579    -0.18000
C1210       C  0.71493884  0.70460090  0.30642906    -0.20200
C1211       C  0.73145629  0.69380990  0.28021041     0.20500
C1212       C  0.74555584  0.65702489  0.28022884    -0.03100
C1213       C  0.74287481  0.63123675  0.30645377    -0.06100
C1214       C  0.72708634  0.64307666  0.33318347     0.20800
C1215       C  0.75644124  0.59400591  0.30617663     0.18900
C1216       C  0.77221181  0.58274507  0.27944927    -0.17600
C1217       C  0.77541814  0.60873777  0.25376272    -0.19800
C1218       C  0.76243469  0.64607755  0.25413095     0.20400
C1219       C  0.76581309  0.67250592  0.22873558    -0.32900
C1220       C  0.75152603  0.70897840  0.22829863     0.01100
C1221       C  0.73399450  0.71906180  0.25393935    -0.24200
C1222       C  0.72618169  0.61860683  0.36005530    -0.28800
C1223       C  0.74049300  0.58210526  0.36043322     0.06800
C1224       C  0.75478860  0.56934796  0.33303484    -0.27400
H1225       H  0.70095081  0.68912621  0.35321914     0.11500
H1226       H  0.70390024  0.73267265  0.30674184     0.12600
H1227       H  0.78256636  0.55417621  0.27870149     0.11700
H1228       H  0.78809811  0.59965991  0.23361990     0.11000
H1229       H  0.77917711  0.66422540  0.20900874     0.16300
H1230       H  0.72180803  0.74608475  0.25325787     0.12300
H1231       H  0.71477672  0.62832816  0.38100185     0.15100
H1232       H  0.76589418  0.54132334  0.33327254     0.14900
C1233       C  0.71102498  0.88141985  0.26485484    -0.18000
C1234       C  0.71099447  0.90488169  0.29240786    -0.20200
C1235       C  0.73183637  0.90016113  0.31546114     0.20500
C1236       C  0.75316241  0.87185945  0.31038029    -0.03100
C1237       C  0.75344432  0.84862607  0.28236078    -0.06100
C1238       C  0.73213528  0.85320216  0.25961128     0.20800
C1239       C  0.77494179  0.82058722  0.27727580     0.18900
C1240       C  0.79594961  0.81614232  0.30006565    -0.17600
C1241       C  0.79546183  0.83879020  0.32793322    -0.19800
C1242       C  0.77403860  0.86636592  0.33348689     0.20400
C1243       C  0.77286090  0.88799983  0.36199516    -0.32900
C1244       C  0.75148244  0.91581993  0.36748382     0.01100
C1245       C  0.73139887  0.92247907  0.34381578    -0.24200
C1246       C  0.73233603  0.82938386  0.23214371    -0.28800
C1247       C  0.75355624  0.80117806  0.22725989     0.06800
C1248       C  0.77495635  0.79727141  0.24964484    -0.27400
H1249       H  0.69451714  0.88535183  0.24763159     0.11500
H1250       H  0.69445157  0.92639670  0.29587445     0.12600
H1251       H  0.81264704  0.79489115  0.29646836     0.11700
H1252       H  0.81184775  0.83473245  0.34518762     0.11000
H1253       H  0.78848339  0.88302714  0.38012681     0.16300
H1254       H  0.71480126  0.94371365  0.34810058     0.12300
H1255       H  0.71580796  0.83226732  0.21480059     0.15100
H1256       H  0.79142839  0.77575222  0.24560844     0.14900
C1257       C  0.71833843  0.10917436  0.74794847    -0.18000
C1258       C  0.71826085  0.08418477  0.72127442    -0.20200
C1259       C  0.73719230  0.09045542  0.69614046     0.20500
C1260       C  0.75673611  0.12180282  0.69826614    -0.03100
C1261       C  0.75683932  0.14692346  0.72512850    -0.06100
C1262       C  0.73730763  0.14092525  0.74990276     0.20800
C1263       C  0.77621434  0.17849201  0.72688837     0.18900
C1264       C  0.79553513  0.18431697  0.70220575    -0.17600
C1265       C  0.79534569  0.15956203  0.67559409    -0.19800
C1266       C  0.77584944  0.12863799  0.67322911     0.20400
C1267       C  0.77471590  0.10510558  0.64586427    -0.32900
C1268       C  0.75489625  0.07454618  0.64314355     0.01100
C1269       C  0.73655923  0.06668020  0.66859495    -0.24200
C1270       C  0.73673706  0.16740077  0.77572256    -0.28800
C1271       C  0.75536193  0.19973095  0.77683785     0.06800
C1272       C  0.77564927  0.20419218  0.75298459    -0.27400
H1273       H  0.70330857  0.10399233  0.76685174     0.11500
H1274       H  0.70315722  0.06025879  0.72012263     0.12600
H1275       H  0.81055639  0.20836295  0.70328109     0.11700
H1276       H  0.81030920  0.16476989  0.65671243     0.11000
H1277       H  0.78893140  0.11104731  0.62625709     0.16300
H1278       H  0.72108089  0.04335029  0.66633500     0.12300
H1279       H  0.72131152  0.16360272  0.79445164     0.15100
H1280       H  0.79062058  0.22828281  0.75444624     0.14900
C1281       C  0.55567000  0.63229134  0.43168474    -0.18000
C1282       C  0.57697594  0.61509067  0.44959584    -0.20200
C1283       C  0.60494658  0.62590416  0.44438777     0.20500
C1284       C  0.61155135  0.65456772  0.42114570    -0.03100
C1285       C  0.59009353  0.67152759  0.40277083    -0.06100
C1286       C  0.56200119  0.66039135  0.40814007     0.20800
C1287       C  0.59674111  0.69965902  0.37910107     0.18900
C1288       C  0.62459271  0.71155770  0.37469811    -0.17600
C1289       C  0.64578840  0.69517202  0.39327976    -0.19800
C1290       C  0.63959473  0.66601550  0.41604985     0.20400
C1291       C  0.66098557  0.64718586  0.43303683    -0.32900
C1292       C  0.65465692  0.61676518  0.45484277     0.01100
C1293       C  0.62646993  0.60753156  0.46126609    -0.24200
C1294       C  0.54070522  0.67832172  0.39046387    -0.28800
C1295       C  0.54720695  0.70693531  0.36740192     0.06800
C1296       C  0.57530805  0.71625358  0.36093633    -0.27400
H1297       H  0.53423311  0.62353974  0.43619788     0.11500
H1298       H  0.57158525  0.59311582  0.46740419     0.12600
H1299       H  0.62994844  0.73380464  0.35708723     0.11700
H1300       H  0.66704244  0.70518751  0.38978612     0.11000
H1301       H  0.68257099  0.65466382  0.42793050     0.16300
H1302       H  0.62125834  0.58459327  0.47837272     0.12300
H1303       H  0.51902960  0.67124287  0.39548475     0.15100
H1304       H  0.58037796  0.73750715  0.34247616     0.14900
C1305       C  0.90576934  0.65916668  0.46308665    -0.18000
C1306       C  0.92806907  0.67838944  0.44799827    -0.20200
C1307       C  0.92913504  0.68103667  0.41474341     0.20500
C1308       C  0.90730602  0.66472104  0.39643561    -0.03100
C1309       C  0.88437559  0.64644142  0.41170846    -0.06100
C1310       C  0.88384207  0.64314739  0.44518820     0.20800
C1311       C  0.86201384  0.63147558  0.39351057     0.18900
C1312       C  0.86295163  0.63446977  0.36023840    -0.17600
C1313       C  0.88595102  0.65195115  0.34505340    -0.19800
C1314       C  0.90825060  0.66705422  0.36291714     0.20400
C1315       C  0.93119862  0.68524734  0.34798671    -0.32900
C1316       C  0.95238470  0.70261061  0.36627037     0.01100
C1317       C  0.95140035  0.70030192  0.39949786    -0.24200
C1318       C  0.86148139  0.62365455  0.46012944    -0.28800
C1319       C  0.83923622  0.60888574  0.44209200     0.06800
C1320       C  0.83930741  0.61336872  0.40892987    -0.27400
H1321       H  0.90556735  0.65708999  0.48879074     0.11500
H1322       H  0.94458966  0.69098375  0.46234134     0.12600
H1323       H  0.84595188  0.62311334  0.34595105     0.11700
H1324       H  0.88620993  0.65390656  0.31934170     0.11000
H1325       H  0.93191104  0.68790117  0.32229709     0.16300
H1326       H  0.96773892  0.71421720  0.41337520     0.12300
H1327       H  0.86136695  0.61974421  0.48572253     0.15100
H1328       H  0.82224550  0.60121459  0.39511334     0.14900
C1329       C  0.94154401  0.86633182  0.43042915    -0.18000
C1330       C  0.92008065  0.88428169  0.44798044    -0.20200
C1331       C  0.89207020  0.87390546  0.44268460     0.20500
C1332       C  0.88559317  0.84513834  0.41951949    -0.03100
C1333       C  0.90722094  0.82753414  0.40141463    -0.06100
C1334       C  0.93535437  0.83807640  0.40698224     0.20800
C1335       C  0.90067637  0.79949624  0.37769342     0.18900
C1336       C  0.87276209  0.78836688  0.37290495    -0.17600
C1337       C  0.85140452  0.80526617  0.39126210    -0.19800
C1338       C  0.85751849  0.83414384  0.41427605     0.20400
C1339       C  0.83604747  0.85266876  0.43172326    -0.32900
C1340       C  0.84224327  0.88238046  0.45418846     0.01100
C1341       C  0.87043096  0.89230192  0.45978410    -0.24200
C1342       C  0.95676520  0.81970187  0.38937148    -0.28800
C1343       C  0.95030410  0.79136199  0.36607742     0.06800
C1344       C  0.92220098  0.78256595  0.35956861    -0.27400
H1345       H  0.96298875  0.87470252  0.43509171     0.11500
H1346       H  0.92540059  0.90632863  0.46572150     0.12600
H1347       H  0.86746639  0.76634233  0.35512607     0.11700
H1348       H  0.83006545  0.79584159  0.38738020     0.11000
H1349       H  0.81449071  0.84498632  0.42692454     0.16300
H1350       H  0.87558684  0.91508137  0.47701190     0.12300
H1351       H  0.97843965  0.82648443  0.39440321     0.15100
H1352       H  0.91713115  0.76180015  0.34081202     0.14900
C1353       C  0.59067945  0.82824782  0.46897542    -0.18000
C1354       C  0.56829954  0.81091494  0.45283143    -0.20200
C1355       C  0.56723174  0.81195764  0.41951320     0.20500
C1356       C  0.58910984  0.83012307  0.40220073    -0.03100
C1357       C  0.61205952  0.84661818  0.41845280    -0.06100
C1358       C  0.61258836  0.84628810  0.45203532     0.22400
C1359       C  0.63435782  0.86369486  0.40111642     0.18900
C1360       C  0.63350999  0.86413395  0.36776844    -0.17600
C1361       C  0.61051902  0.84840540  0.35167506    -0.19800
C1362       C  0.58818373  0.83149511  0.36864634     0.20400
C1363       C  0.56533721  0.81486038  0.35267444    -0.32900
C1364       C  0.54423218  0.79535401  0.36981832     0.01100
C1365       C  0.54503420  0.79433597  0.40314153    -0.24200
C1366       C  0.63476354  0.86464611  0.46803517    -0.28800
C1367       C  0.65674638  0.88206480  0.45082609     0.06800
C1368       C  0.65679359  0.88080439  0.41747363    -0.27400
H1369       H  0.59087539  0.82749285  0.49472563     0.11500
H1370       H  0.55173747  0.79687052  0.46641962     0.12600
H1371       H  0.65051701  0.87700711  0.35413396     0.11700
H1372       H  0.61028954  0.84923782  0.32592698     0.11000
H1373       H  0.56476941  0.81482632  0.32690232     0.16300
H1374       H  0.52875635  0.77876372  0.41614294     0.12300
H1375       H  0.63482200  0.86588466  0.49379920     0.15100
H1376       H  0.67367557  0.89483068  0.40432588     0.14900
C1377       C  0.68713013  0.33498319  0.94620892    -0.18000
C1378       C  0.66453517  0.35258877  0.96204597    -0.20200
C1379       C  0.64035060  0.36314917  0.94536730     0.20500
C1380       C  0.63892693  0.35592639  0.91234123    -0.03100
C1381       C  0.66207599  0.33926058  0.89618001    -0.06100
C1382       C  0.68612797  0.32823394  0.91331707     0.20800
C1383       C  0.66105581  0.33330332  0.86296241     0.18900
C1384       C  0.63678527  0.34354400  0.84632132    -0.17600
C1385       C  0.61362575  0.35927282  0.86244195    -0.19800
C1386       C  0.61449506  0.36569976  0.89542484     0.20400
C1387       C  0.59172169  0.38278930  0.91165093    -0.32900
C1388       C  0.59356485  0.39177122  0.94424577     0.01100
C1389       C  0.61784673  0.38165349  0.96097826    -0.24200
C1390       C  0.70833537  0.30949531  0.89742328    -0.28800
C1391       C  0.70692578  0.30231251  0.86462388     0.06800
C1392       C  0.68392248  0.31588498  0.84722700    -0.27400
H1393       H  0.70542286  0.32668074  0.95969982     0.11500
H1394       H  0.66594061  0.35782825  0.98740420     0.12600
H1395       H  0.63558888  0.33894961  0.82086473     0.11700
H1396       H  0.59510817  0.36677359  0.84904428     0.11000
H1397       H  0.57317807  0.39121367  0.89860597     0.16300
H1398       H  0.61932316  0.38878033  0.98605840     0.12300
H1399       H  0.72627235  0.29910334  0.91065494     0.15100
H1400       H  0.68300788  0.31015269  0.82187828     0.14900
C1401       C  0.89905509  0.30832281  0.89329978    -0.18000
C1402       C  0.87804759  0.29082418  0.87508571    -0.20200
C1403       C  0.85049615  0.30476137  0.87713262     0.20500
C1404       C  0.84388223  0.33619833  0.89798265    -0.03100
C1405       C  0.86511680  0.35410574  0.91605254    -0.06100
C1406       C  0.89290332  0.34039104  0.91343136     0.20800
C1407       C  0.85858849  0.38607768  0.93637934     0.18900
C1408       C  0.83093800  0.39956920  0.93881582    -0.17600
C1409       C  0.80981883  0.38153286  0.92113552    -0.19800
C1410       C  0.81606434  0.34983769  0.90070024     0.20400
C1411       C  0.79489423  0.33079963  0.88362267    -0.32900
C1412       C  0.80130725  0.29857634  0.86385554     0.01100
C1413       C  0.82927177  0.28709826  0.85937093    -0.24200
C1414       C  0.91414333  0.35970425  0.93026612    -0.28800
C1415       C  0.90791413  0.39260565  0.94960466     0.06800
C1416       C  0.87994295  0.40483005  0.95319974    -0.27400
H1417       H  0.92016762  0.29701171  0.89142787     0.11500
H1418       H  0.88331336  0.26625303  0.85952911     0.12600
H1419       H  0.82567164  0.42423366  0.95427311     0.11700
H1420       H  0.78860530  0.39236586  0.92344182     0.11000
H1421       H  0.77331787  0.33974286  0.88685822     0.16300
H1422       H  0.83425961  0.26292654  0.84329482     0.12300
H1423       H  0.93560437  0.35013849  0.92725827     0.15100
H1424       H  0.87481301  0.42992534  0.96829449     0.14900
C1425       C  0.60518662  0.68442468  0.12048012    -0.18000
C1426       C  0.62688541  0.70148055  0.13799826    -0.20200
C1427       C  0.65482268  0.69559832  0.12887295     0.20500
C1428       C  0.66100521  0.67206061  0.10198949    -0.03100
C1429       C  0.63912530  0.65436701  0.08460647    -0.06100
C1430       C  0.61106498  0.66085450  0.09373720     0.20800
C1431       C  0.64534802  0.63033686  0.05804081     0.18900
C1432       C  0.67328043  0.62457768  0.04884126    -0.17600
C1433       C  0.69492154  0.64284823  0.06562171    -0.19800
C1434       C  0.68903255  0.66656123  0.09225096     0.20400
C1435       C  0.71058790  0.68557027  0.10889230    -0.32900
C1436       C  0.70442993  0.70973562  0.13515395     0.01100
C1437       C  0.67666127  0.71357969  0.14567486    -0.24200
C1438       C  0.58941846  0.64329679  0.07621367    -0.28800
C1439       C  0.59548720  0.61854003  0.05013095     0.06800
C1440       C  0.62355918  0.61234920  0.04119829    -0.27400
H1441       H  0.58379060  0.68963409  0.12788158     0.11500
H1442       H  0.62179890  0.71968466  0.15847581     0.12600
H1443       H  0.67838373  0.60620852  0.02846535     0.11700
H1444       H  0.71628060  0.63842861  0.05776449     0.11000
H1445       H  0.73205113  0.68269831  0.10085437     0.16300
H1446       H  0.67204631  0.73141266  0.16648264     0.12300
H1447       H  0.56792186  0.64767984  0.08363036     0.15100
H1448       H  0.62850322  0.59318419  0.02122097     0.14900
C1449       C  0.88381582  0.62939859  0.13621734    -0.18000
C1450       C  0.86064134  0.64584675  0.15178950    -0.20200
C1451       C  0.84051129  0.66707006  0.13461178     0.20500
C1452       C  0.84363795  0.67137036  0.10136320    -0.03100
C1453       C  0.86688301  0.65462737  0.08566175    -0.06100
C1454       C  0.88711495  0.63369615  0.10321338     0.20800
C1455       C  0.86988726  0.65889685  0.05238455     0.18900
C1456       C  0.84995237  0.68042940  0.03526841    -0.17600
C1457       C  0.82719678  0.69764093  0.05091558    -0.19800
C1458       C  0.82383002  0.69312935  0.08382950     0.20400
C1459       C  0.80140632  0.71102122  0.09959479    -0.32900
C1460       C  0.79866610  0.70793163  0.13264540     0.01100
C1461       C  0.81785494  0.68533895  0.15009684    -0.24200
C1462       C  0.90998370  0.61681706  0.08730801    -0.28800
C1463       C  0.91255771  0.62009340  0.05417690     0.06800
C1464       C  0.89259353  0.64112971  0.03678189    -0.27400
H1465       H  0.89918938  0.61337218  0.14998005     0.11500
H1466       H  0.85862591  0.64235087  0.17730629     0.12600
H1467       H  0.85204363  0.68414522  0.00978476     0.11700
H1468       H  0.81224263  0.71459066  0.03727483     0.11000
H1469       H  0.78658280  0.72879026  0.08639076     0.16300
H1470       H  0.81604225  0.68390841  0.17573940     0.12300
H1471       H  0.92506592  0.59943144  0.10042138     0.15100
H1472       H  0.89449190  0.64289886  0.01111702     0.14900
C1473       C  0.96194458  0.69835781  0.19338421    -0.18000
C1474       C  0.96263688  0.67571834  0.16553244    -0.20200
C1475       C  0.97898770  0.64123104  0.16384490     0.20500
C1476       C  0.99458163  0.62909758  0.19043348    -0.03100
C1477       C  0.99458886  0.65263045  0.21813182    -0.06100
C1478       C  0.97811663  0.68732681  0.21964629     0.20800
C1479       C  0.51140786  0.64394745  0.24552504     0.18900
C1480       C  0.52756379  0.60925523  0.24360237    -0.17600
C1481       C  0.52701260  0.58555033  0.21622507    -0.19800
C1482       C  0.51045819  0.59625824  0.19016221     0.20400
C1483       C  0.51083045  0.57372630  0.16192562    -0.32900
C1484       C  0.99635044  0.58406422  0.13433403     0.01100
C1485       C  0.98035828  0.61898467  0.13586317    -0.24200
C1486       C  0.97847814  0.71068308  0.24721122    -0.28800
C1487       C  0.99662548  0.70141334  0.27232497     0.06800
C1488       C  0.51263207  0.66866688  0.27239042    -0.27400
H1489       H  0.94918983  0.72489642  0.19417242     0.11500
H1490       H  0.95039212  0.68516301  0.14531152     0.12600
H1491       H  0.54083568  0.60062263  0.26319022     0.11700
H1492       H  0.53990078  0.55916062  0.21524348     0.11000
H1493       H  0.52410433  0.54777012  0.16007569     0.16300
H1494       H  0.96918520  0.62908284  0.11504499     0.12300
H1495       H  0.96520915  0.73665823  0.24877087     0.15100
H1496       H  0.52666047  0.66124893  0.29162022     0.14900
C1497       C  0.64402014  0.31081948  0.61167209    -0.18000
C1498       C  0.62248369  0.29417004  0.62985524    -0.20200
C1499       C  0.59448877  0.30156041  0.62222675     0.20500
C1500       C  0.58808268  0.32566345  0.59585085    -0.03100
C1501       C  0.60986510  0.34273477  0.57765919    -0.06100
C1502       C  0.63797185  0.33539784  0.58573416     0.20800
C1503       C  0.60351370  0.36766748  0.55179135     0.18900
C1504       C  0.57549925  0.37436466  0.54372872    -0.17600
C1505       C  0.55390103  0.35700489  0.56149893    -0.19800
C1506       C  0.55994051  0.33296011  0.58782274     0.20400
C1507       C  0.53842043  0.31575660  0.60609221    -0.32900
C1508       C  0.54478180  0.29127212  0.63207251     0.01100
C1509       C  0.57280559  0.28494156  0.64033704    -0.24200
C1510       C  0.65952095  0.35369995  0.56838232    -0.28800
C1511       C  0.65332846  0.38006883  0.54353956     0.06800
C1512       C  0.62525349  0.38631088  0.53501994    -0.27400
H1513       H  0.66542283  0.30474892  0.61805851     0.11500
H1514       H  0.62773105  0.27548724  0.64990457     0.12600
H1515       H  0.57028211  0.39328905  0.52381164     0.11700
H1516       H  0.53245677  0.36267977  0.55482055     0.11000
H1517       H  0.51678285  0.32039488  0.59961792     0.16300
H1518       H  0.57767963  0.26645665  0.66062831     0.12300
H1519       H  0.68103551  0.34903225  0.57531452     0.15100
H1520       H  0.62027595  0.40653960  0.51583427     0.14900
C1521       C  0.85881557  0.36048365  0.63133734    -0.18000
C1522       C  0.88189145  0.34594576  0.64795271    -0.20200
C1523       C  0.90541646  0.33174148  0.63147861     0.20500
C1524       C  0.90569901  0.33216702  0.59789528    -0.03100
C1525       C  0.88258165  0.34731700  0.58113946    -0.06100
C1526       C  0.85897250  0.36135631  0.59796116     0.20800
C1527       C  0.88331894  0.34908274  0.54758634     0.18900
C1528       C  0.90683228  0.33484849  0.53112729    -0.17600
C1529       C  0.92942816  0.31887704  0.54770080    -0.19800
C1530       C  0.92908793  0.31747503  0.58103216     0.20400
C1531       C  0.95144750  0.30091435  0.59778765    -0.32900
C1532       C  0.95094131  0.29971851  0.63110653     0.01100
C1533       C  0.92839932  0.31628036  0.64791042    -0.24200
C1534       C  0.83632954  0.37711883  0.58111130    -0.28800
C1535       C  0.83745254  0.38019777  0.54782519     0.06800
C1536       C  0.86087733  0.36606990  0.53116464    -0.27400
H1537       H  0.84093370  0.37139254  0.64460656     0.11500
H1538       H  0.88129344  0.34567131  0.67370735     0.12600
H1539       H  0.90774367  0.33605633  0.50540257     0.11700
H1540       H  0.94725914  0.30781509  0.53444110     0.11000
H1541       H  0.96882635  0.28766802  0.58500280     0.16300
H1542       H  0.92800464  0.31464590  0.67366087     0.12300
H1543       H  0.81846826  0.38899595  0.59392606     0.15100
H1544       H  0.86181063  0.36911325  0.50551548     0.14900
C1545       C  0.91782214  0.11886340  0.55122672    -0.18000
C1546       C  0.93925469  0.13756421  0.56808489    -0.20200
C1547       C  0.93295442  0.16564840  0.59169923     0.20500
C1548       C  0.90478506  0.17582707  0.59770183    -0.03100
C1549       C  0.88320288  0.15749995  0.58028858    -0.06100
C1550       C  0.88975192  0.12828573  0.55744656     0.20800
C1551       C  0.85505313  0.16745587  0.58651750     0.18900
C1552       C  0.84882425  0.19649961  0.60940001    -0.17600
C1553       C  0.87014825  0.21407381  0.62711034    -0.19800
C1554       C  0.89810777  0.20353273  0.62170014     0.20400
C1555       C  0.91950654  0.22027902  0.63982567    -0.32900
C1556       C  0.94760204  0.21156163  0.63312791     0.01100
C1557       C  0.95424733  0.18382300  0.60937291    -0.24200
C1558       C  0.86811847  0.10785408  0.54217019    -0.28800
C1559       C  0.83991215  0.11611020  0.54939645     0.06800
C1560       C  0.83360044  0.14700078  0.57081039    -0.27400
H1561       H  0.92318951  0.09657480  0.53364135     0.11500
H1562       H  0.96073544  0.12955961  0.56303065     0.12600
H1563       H  0.82739368  0.20505250  0.61405085     0.11700
H1564       H  0.86476106  0.23580426  0.64513777     0.11000
H1565       H  0.91435422  0.24065047  0.65888843     0.16300
H1566       H  0.97595688  0.17717254  0.60420823     0.12300
H1567       H  0.87333658  0.08442478  0.52548508     0.15100
H1568       H  0.81202709  0.15371727  0.57658777     0.14900
C1569       C  0.56809326  0.17959930  0.55405335    -0.18000
C1570       C  0.59090574  0.16121172  0.53931513    -0.20200
C1571       C  0.61205411  0.14393260  0.55760805     0.20500
C1572       C  0.61054398  0.14592994  0.59112544    -0.03100
C1573       C  0.58741974  0.16422388  0.60600517    -0.06100
C1574       C  0.56606978  0.18102090  0.58731716     0.20800
C1575       C  0.58592793  0.16638315  0.63952035     0.18900
C1576       C  0.60764705  0.15047912  0.65778819    -0.17600
C1577       C  0.63059244  0.13234284  0.64302572    -0.19800
C1578       C  0.63218866  0.12980530  0.60974951     0.20400
C1579       C  0.65484502  0.11103437  0.59473037    -0.32900
C1580       C  0.65568577  0.10743578  0.56148304     0.01100
C1581       C  0.63448891  0.12422048  0.54300914    -0.24200
C1582       C  0.54356504  0.20013329  0.60221403    -0.28800
C1583       C  0.54228946  0.20287263  0.63543936     0.06800
C1584       C  0.56315731  0.18546852  0.65406309    -0.27400
H1585       H  0.55205881  0.19283922  0.53942002     0.11500
H1586       H  0.59198114  0.16042845  0.51358426     0.12600
H1587       H  0.60695782  0.15225113  0.68350406     0.11700
H1588       H  0.64708760  0.12025456  0.65764180     0.11000
H1589       H  0.67127279  0.09783241  0.60886747     0.16300
H1590       H  0.63536563  0.12146288  0.51733125     0.12300
H1591       H  0.52750563  0.21417820  0.58805511     0.15100
H1592       H  0.56227280  0.18851737  0.67972199     0.14900
C1593       C  0.52808151  0.42101365  0.78038884    -0.18000
C1594       C  0.52891178  0.39509402  0.75432491    -0.20200
C1595       C  0.51242794  0.36058523  0.75400226     0.20500
C1596       C  0.99416538  0.35291682  0.77925503    -0.03100
C1597       C  0.99356235  0.37784250  0.80626221    -0.06100
C1598       C  0.51092642  0.41272700  0.80672900     0.20800
C1599       C  0.97437908  0.37014253  0.83105964     0.18900
C1600       C  0.95515443  0.33895117  0.82805305    -0.17600
C1601       C  0.95511970  0.31511005  0.80086136    -0.19800
C1602       C  0.97478683  0.32147117  0.77657409     0.20400
C1603       C  0.97558715  0.29663837  0.74985587    -0.32900
C1604       C  0.99605558  0.30192938  0.72621452     0.01100
C1605       C  0.51332583  0.33424021  0.72812701    -0.24200
C1606       C  0.51075460  0.43770790  0.83361600    -0.28800
C1607       C  0.99401331  0.42500947  0.86149920     0.06800
C1608       C  0.97510615  0.39324346  0.85870988    -0.27400
H1609       H  0.54110172  0.44733453  0.78008413     0.11500
H1610       H  0.54251086  0.40201408  0.73441269     0.12600
H1611       H  0.94013790  0.33301498  0.84674936     0.11700
H1612       H  0.94003987  0.29121022  0.79910132     0.11000
H1613       H  0.96035002  0.27300993  0.74746931     0.16300
H1614       H  0.52725970  0.34028123  0.70831266     0.12300
H1615       H  0.52421495  0.46358769  0.83436931     0.15100
H1616       H  0.96108795  0.38630851  0.87828401     0.14900
C1617       C  0.85612539  0.19191683  0.96574286    -0.18000
C1618       C  0.83360547  0.21033650  0.95060889    -0.20200
C1619       C  0.82724834  0.20128394  0.91886514     0.20500
C1620       C  0.84402190  0.17395707  0.90199030    -0.03100
C1621       C  0.86698166  0.15587916  0.91707745    -0.06100
C1622       C  0.87288439  0.16449065  0.94926582     0.20800
C1623       C  0.88362598  0.12845186  0.90013214     0.18900
C1624       C  0.87754565  0.11982300  0.86828411    -0.17600
C1625       C  0.85469638  0.13749897  0.85343230    -0.19800
C1626       C  0.83768298  0.16430604  0.87011930     0.20400
C1627       C  0.81467899  0.18201442  0.85534937    -0.32900
C1628       C  0.79849189  0.21006621  0.87171543     0.01100
C1629       C  0.80455687  0.21920136  0.90358208    -0.24200
C1630       C  0.89493705  0.14465914  0.96450694    -0.28800
C1631       C  0.91096520  0.11665240  0.94773990     0.06800
C1632       C  0.90555950  0.10919168  0.91557695    -0.27400
H1633       H  0.86030658  0.19890626  0.99041150     0.11500
H1634       H  0.82097171  0.23136828  0.96384176     0.12600
H1635       H  0.89024651  0.09893793  0.85498135     0.11700
H1636       H  0.85025922  0.13006618  0.82890529     0.11000
H1637       H  0.81009498  0.17543717  0.83067363     0.16300
H1638       H  0.79201506  0.24106530  0.91607528     0.12300
H1639       H  0.89916163  0.15011330  0.98942811     0.15100
H1640       H  0.91796742  0.08732442  0.90287631     0.14900
C1641       C  0.60563460  0.19252806  0.89203800    -0.18000
C1642       C  0.62668915  0.21073134  0.87409416    -0.20200
C1643       C  0.65481462  0.20140102  0.87943195     0.20500
C1644       C  0.66182072  0.17338750  0.90297388    -0.03100
C1645       C  0.64049929  0.15425938  0.92049277    -0.06100
C1646       C  0.61226805  0.16385240  0.91491373     0.20800
C1647       C  0.64742437  0.12551242  0.94347647     0.18900
C1648       C  0.67561677  0.11682411  0.94927651    -0.17600
C1649       C  0.69678333  0.13628721  0.93227677    -0.19800
C1650       C  0.69010432  0.16445739  0.90897339     0.20400
C1651       C  0.71116237  0.18432193  0.89191312    -0.32900
C1652       C  0.70426705  0.21277111  0.86887157     0.01100
C1653       C  0.67606565  0.22007464  0.86200097    -0.24200
C1654       C  0.59111935  0.14412806  0.93184022    -0.28800
C1655       C  0.59774359  0.11420628  0.95381435     0.06800
C1656       C  0.62602724  0.10553421  0.95985428    -0.27400
H1657       H  0.58413993  0.20092345  0.88808550     0.11500
H1658       H  0.62099704  0.23255728  0.85636965     0.12600
H1659       H  0.68130188  0.09495485  0.96696432     0.11700
H1660       H  0.71838244  0.12921657  0.93728822     0.11000
H1661       H  0.73292168  0.17831383  0.89701005     0.16300
H1662       H  0.67062873  0.24028935  0.84307693     0.12300
H1663       H  0.56945955  0.15092119  0.92686014     0.15100
H1664       H  0.63141604  0.08269886  0.97689483     0.14900
C1665       C  0.96068707  0.12071888  0.76362557    -0.18000
C1666       C  0.96264063  0.09633595  0.79051539    -0.20200
C1667       C  0.98237314  0.10442799  0.81421872     0.20500
C1668       C  0.50111855  0.13329423  0.81137573    -0.03100
C1669       C  0.49969870  0.15804292  0.78429503    -0.06100
C1670       C  0.97853963  0.15354749  0.75984730     0.20800
C1671       C  0.51902382  0.18942870  0.78038632     0.18900
C1672       C  0.53954181  0.19574846  0.80350098    -0.17600
C1673       C  0.54088904  0.17131605  0.83028109    -0.19800
C1674       C  0.52176314  0.14019549  0.83450391     0.20400
C1675       C  0.52272775  0.11626226  0.86169000    -0.32900
C1676       C  0.50350094  0.08518839  0.86608737     0.01100
C1677       C  0.98448295  0.08017392  0.84130986    -0.24200
C1678       C  0.97728357  0.17766821  0.73255487    -0.28800
C1679       C  0.49702890  0.20739231  0.73027954     0.06800
C1680       C  0.51762148  0.21378005  0.75337366    -0.27400
H1681       H  0.94535425  0.11367899  0.74563243     0.11500
H1682       H  0.94873093  0.07108290  0.79274741     0.12600
H1683       H  0.55456426  0.21961815  0.80088237     0.11700
H1684       H  0.55692365  0.17673411  0.84770868     0.11000
H1685       H  0.53831449  0.12205000  0.87972946     0.16300
H1686       H  0.97054940  0.05503620  0.84428369     0.12300
H1687       H  0.96211464  0.17122592  0.71421372     0.15100
H1688       H  0.53275032  0.23740618  0.75006072     0.14900
C1689       C  0.83067809  0.87786334  0.04263709    -0.18000
C1690       C  0.80919089  0.86215282  0.06149623    -0.20200
C1691       C  0.81536988  0.83741050  0.08733184     0.20500
C1692       C  0.84349194  0.82778169  0.09380288    -0.03100
C1693       C  0.86513383  0.84316889  0.07450242    -0.06100
C1694       C  0.85868660  0.86883035  0.04913344     0.20800
C1695       C  0.89324199  0.83390904  0.08125166     0.18900
C1696       C  0.89940958  0.80874272  0.10683361    -0.17600
C1697       C  0.87798129  0.79364104  0.12604038    -0.19800
C1698       C  0.85004240  0.80329076  0.11988072     0.20400
C1699       C  0.82851973  0.78839225  0.13908935    -0.32900
C1700       C  0.80046320  0.79633790  0.13193335     0.01100
C1701       C  0.79397751  0.82165533  0.10655243    -0.24200
C1702       C  0.88037190  0.88642727  0.03160896    -0.28800
C1703       C  0.90850821  0.87893040  0.03915409     0.06800
C1704       C  0.91472884  0.85149136  0.06331673    -0.27400
H1705       H  0.82540416  0.89752856  0.02320773     0.11500
H1706       H  0.78775142  0.86970081  0.05607788     0.12600
H1707       H  0.92085222  0.80133128  0.11236172     0.11700
H1708       H  0.88327291  0.77456991  0.14584132     0.11000
H1709       H  0.83346182  0.76918262  0.15893839     0.16300
H1710       H  0.77232541  0.82771469  0.10103485     0.12300
H1711       H  0.87529317  0.90744847  0.01301911     0.15100
H1712       H  0.93627975  0.84573669  0.06957703     0.14900
C1713       C  0.68747298  0.83246141  0.05239760    -0.18000
C1714       C  0.66490583  0.84955093  0.03647718    -0.20200
C1715       C  0.63995618  0.85797970  0.05281307     0.20500
C1716       C  0.63779534  0.84946562  0.08558782    -0.03100
C1717       C  0.66084253  0.83339502  0.10184603    -0.06100
C1718       C  0.68563242  0.82423666  0.08503278     0.20800
C1719       C  0.65898192  0.82616187  0.13485523     0.18900
C1720       C  0.63409563  0.83467938  0.15121639    -0.17600
C1721       C  0.61106272  0.84987169  0.13497244    -0.19800
C1722       C  0.61270782  0.85741432  0.10220196     0.20400
C1723       C  0.59004449  0.87404269  0.08597341    -0.32900
C1724       C  0.59245544  0.88403329  0.05369332     0.01100
C1725       C  0.61736431  0.87567759  0.03717831    -0.24200
C1726       C  0.70783026  0.80616201  0.10104620    -0.28800
C1727       C  0.70572584  0.79832732  0.13368044     0.06800
C1728       C  0.68176997  0.80949846  0.15071117    -0.27400
H1729       H  0.70638765  0.82574666  0.03920022     0.11500
H1730       H  0.66691181  0.85598834  0.01133374     0.12600
H1731       H  0.63234403  0.82918018  0.17652807     0.11700
H1732       H  0.59203035  0.85607817  0.14810361     0.11000
H1733       H  0.57124091  0.88176415  0.09890893     0.16300
H1734       H  0.61931666  0.88388321  0.01233880     0.12300
H1735       H  0.72639867  0.79714047  0.08807431     0.15100
H1736       H  0.68036100  0.80315907  0.17593935     0.14900
C1737       C  0.53209220  0.82144773  0.16667305    -0.18000
C1738       C  0.53270002  0.79858071  0.19438409    -0.20200
C1739       C  0.51681812  0.80974084  0.22106074     0.20500
C1740       C  0.50033321  0.84443454  0.21987845    -0.03100
C1741       C  0.50051406  0.86830168  0.19230479    -0.06100
C1742       C  0.51619054  0.85640062  0.16551193     0.20800
C1743       C  0.98516307  0.90097351  0.18762355     0.18900
C1744       C  0.97009743  0.91289867  0.21469055    -0.17600
C1745       C  0.96975124  0.88920470  0.24200365    -0.19800
C1746       C  0.98487776  0.85355329  0.24292265     0.20400
C1747       C  0.98425927  0.82934362  0.27001656    -0.32900
C1748       C  0.49911274  0.79598837  0.27444456     0.01100
C1749       C  0.51682503  0.78654662  0.24872558    -0.24200
C1750       C  0.51543596  0.87938731  0.13786880    -0.28800
C1751       C  0.50024333  0.91511532  0.13684177     0.06800
C1752       C  0.98502344  0.92399932  0.15976723    -0.27400
H1753       H  0.54419015  0.81191962  0.14619600     0.11500
H1754       H  0.54525869  0.77184549  0.19478780     0.12600
H1755       H  0.95829077  0.94031633  0.21460768     0.11700
H1756       H  0.95766305  0.89880169  0.26245504     0.11000
H1757       H  0.97121835  0.83773726  0.29004980     0.16300
H1758       H  0.53023935  0.76071882  0.25001110     0.12300
H1759       H  0.52668411  0.86935151  0.11697040     0.15100
H1760       H  0.97335328  0.95154776  0.15910542     0.14900
loop_ 
_geom_bond_atom_site_label_1 
_geom_bond_atom_site_label_2 
_geom_bond_distance 
_geom_bond_site_symmetry_2 
_ccdc_geom_bond_type 
Zr1           O3   2.407   1_455  S
Zr1           O4   2.438       .  S
Zr1         O887   2.436   1_455  S
Zr1           O9   2.375       .  S
Zr1          O11   2.405   1_554  S
Zr1         O890   2.381   1_455  S
Zr1         O892   2.404   1_454  S
Zr1         O882   2.436   1_554  S
O2         Zr881   2.434       .  S
O2          H938   0.990       .  S
O2          H946   0.990   1_554  S
O3           C23   1.281       .  A
O4           C25   1.285       .  A
O5          Zr15   2.425   1_565  S
O5           C24   1.284       .  A
O6          Zr14   2.416   1_565  S
O6           C25   1.282       .  A
O7         Zr881   2.436       .  S
O7           C24   1.288       .  A
O8         Zr896   2.448   1_565  S
O8           C23   1.286       .  A
O9          Zr14   2.378   1_565  S
O9         Zr896   2.369   1_465  S
O10         Zr15   2.385   1_565  S
O10         Zr16   2.372   1_565  S
O10        Zr881   2.388       .  S
O10          H45   0.968       .  S
O11         Zr14   2.400   1_566  S
O11         Zr31   2.411       .  S
O11          H48   0.966       .  S
O12         Zr15   2.395   1_566  S
O12        Zr881   2.399   1_556  S
O12        Zr911   2.404       .  S
Zr13         O32   2.422       .  S
Zr13         O40   2.457       .  S
Zr13        O908   2.444       .  S
Zr13         O19   2.407   1_556  S
Zr13         O22   2.375       .  S
Zr13        O900   2.409   1_556  S
Zr13        O901   2.374       .  S
Zr13         O38   2.435       .  S
Zr14         O27   2.416   1_554  S
Zr14         O20   2.389       .  S
Zr14         O21   2.381   1_554  S
Zr14         O33   2.436   1_544  S
Zr14         O26   2.436       .  S
Zr15         O41   2.426   1_554  S
Zr15         O19   2.393       .  S
Zr15         O22   2.382   1_554  S
Zr15         O17   2.434   1_544  S
Zr15         O39   2.438       .  S
Zr16        O888   2.460   1_545  S
Zr16         O19   2.410       .  S
Zr16        O889   2.365   1_545  S
Zr16        O900   2.409       .  S
Zr16         O42   2.434       .  S
Zr16         O43   2.437       .  S
Zr16        O898   2.438       .  S
O17          H54   0.990       .  S
O18        Zr896   2.437   1_455  S
O18          H49   0.991       .  S
O18          H63   0.990       .  S
O20        Zr893   2.402   1_554  S
O20        Zr896   2.409   1_455  S
O20          H46   0.967       .  S
O21         Zr31   2.373   1_545  S
O21        Zr893   2.376       .  S
O22        Zr911   2.366   1_545  S
O22          H47   0.966       .  S
C23         C871   1.477       .  S
C24         C823   1.481       .  S
C25         C844   1.467       .  S
O26          H62   0.990       .  S
O27          C29   1.282       .  A
O28        Zr893   2.444       .  S
O28          C29   1.288       .  A
C29         C775   1.487       .  S
O30        Zr911   2.437       .  S
O30         H939   0.990       .  S
Zr31        O916   2.455   1_565  S
Zr31        O892   2.408   1_455  S
Zr31        O902   2.362   1_465  S
Zr31         O34   2.437       .  S
Zr31        O910   2.442       .  S
Zr31        O915   2.442   1_455  S
O32          C37   1.283       .  A
O33          H50   0.990       .  S
O33          H65   0.990       .  S
O34          H51   0.990       .  S
O35        Zr911   2.439       .  S
O35          H55   0.990       .  S
O35          H64   0.990       .  S
O36        Zr911   2.446   1_545  S
O36          C37   1.286       .  A
C37        C1676   1.477       .  S
O38          H57   0.990   1_556  S
O38         H941   0.990   1_556  S
O39          H53   0.990       .  S
O39          H60   0.990       .  S
O40          C44   1.290       .  A
O41          C44   1.284       .  A
O42          H52   0.990       .  S
O43         H936   0.990       .  S
C44         C751   1.477       .  S
H56         O923   0.990   1_455  S
H58         O882   0.991   1_554  S
H59         O910   0.991       .  S
H61         O918   0.990   1_554  S
H66         O882   0.990       .  S
C67          H68   1.111       .  S
C67          C72   1.536       .  S
C67         C953   1.534       .  S
C67         C951   1.533       .  S
C69          H70   1.111       .  S
C69          C74   1.534   1_655  S
C69         C955   1.531       .  S
C69         C956   1.540       .  S
C71         C947   1.534   1_455  S
C71          C74   1.370       .  D
C71         C703   1.478       .  S
C72          C75   1.375       .  D
C72         C676   1.487       .  S
C73         C947   1.541       .  S
C73         C956   1.383       .  D
C73         C799   1.492       .  S
C74         C628   1.480       .  S
C75         C949   1.533       .  S
C75         C652   1.480       .  S
C76         C949   1.546       .  S
C76         C953   1.383       .  D
C76         C724   1.488       .  S
Zr77         O79   2.395       .  S
Zr77         O80   2.437       .  S
Zr77        O963   2.444       .  S
Zr77         O85   2.381       .  S
Zr77         O87   2.405   1_556  S
Zr77        O966   2.381       .  S
Zr77        O968   2.400   1_556  S
Zr77        O958   2.437       .  S
O78        Zr957   2.434       .  S
O78        H1014   0.990   1_455  S
O78        H1022   0.990   1_456  S
O79          C99   1.278       .  A
O80         C101   1.286       .  A
O81         Zr91   2.432       .  S
O81         C100   1.285       .  A
O82         Zr90   2.415       .  S
O82         C101   1.283       .  A
O83        Zr957   2.456       .  S
O83         C100   1.290       .  A
O84         Zr92   2.460       .  S
O84          C99   1.288       .  A
O85         Zr90   2.374       .  S
O85         Zr92   2.368       .  S
O86         Zr91   2.382       .  S
O86        Zr957   2.380       .  S
O86        Zr972   2.367       .  S
O86         H121   0.967       .  S
O87         Zr90   2.399   1_554  S
O87        Zr107   2.406       .  S
O87         H124   0.965       .  S
O88         Zr91   2.391   1_554  S
O88        Zr957   2.398   1_554  S
O88        Zr987   2.402       .  S
Zr89        O108   2.414       .  S
Zr89        O104   2.441       .  S
Zr89        O996   2.451       .  S
Zr89         O96   2.408   1_554  S
Zr89         O97   2.369       .  S
Zr89        O975   2.407   1_554  S
Zr89        O978   2.379       .  S
Zr89        O994   2.435       .  S
Zr90        O103   2.407   1_556  S
Zr90         O96   2.392       .  S
Zr90         O97   2.377   1_556  S
Zr90        O109   2.434   1_556  S
Zr90        O102   2.435       .  S
Zr91        O117   2.418   1_556  S
Zr91         O95   2.397       .  S
Zr91         O98   2.384   1_556  S
Zr91         O93   2.436   1_556  S
Zr91        O115   2.434       .  S
Zr92         O96   2.405       .  S
Zr92        O966   2.370       .  S
Zr92        O975   2.413       .  S
Zr92         O94   2.440       .  S
Zr92        O998   2.434       .  S
Zr92        O999   2.437       .  S
O93         H130   0.990       .  S
O94         H125   0.990       .  S
O94         H139   0.990       .  S
O95        Zr969   2.402   1_556  S
O95        Zr972   2.407       .  S
O96         H122   0.967       .  S
O97        Zr107   2.365       .  S
O98        Zr969   2.382       .  S
O98        Zr987   2.363       .  S
O98         H123   0.965       .  S
C99         C727   1.475       .  S
C100        C508   1.482       .  S
C101        C535   1.482       .  S
O102        H138   0.990       .  S
O103        C105   1.279       .  A
O104        C105   1.286       .  A
C105        C583   1.461       .  S
O106       Zr987   2.438       .  S
O106       H1015   0.990       .  S
Zr107       O112   2.461       .  S
Zr107       O968   2.410       .  S
Zr107       O978   2.364       .  S
Zr107       O110   2.435       .  S
Zr107       O986   2.438       .  S
Zr107       O991   2.441       .  S
O108        C113   1.282       .  A
O109        H126   0.990       .  S
O109        H141   0.990       .  S
O110        H127   0.990       .  S
O111       Zr987   2.439       .  S
O111        H131   0.989       .  S
O111        H140   0.990       .  S
O112        C113   1.289       .  A
C113        C604   1.483       .  S
O114       Zr969   2.435       .  S
O114        H133   0.990   1_554  S
O114       H1017   0.990   1_454  S
O115        H129   0.990       .  S
O115        H136   0.990       .  S
O116       Zr969   2.430       .  S
O116        C120   1.286       .  A
O117        C120   1.283       .  A
O118       Zr972   2.433       .  S
O118        H128   0.990       .  S
O119       Zr972   2.436       .  S
O119       H1012   0.990       .  S
C120        C559   1.473       .  S
H132        O999   0.990       .  S
H134        O958   0.991       .  S
H135        O986   0.991       .  S
H137        O994   0.990   1_556  S
H142        O958   0.990   1_554  S
C143        H144   1.111       .  S
C143        C148   1.536       .  S
C143       C1029   1.542       .  S
C143       C1027   1.531       .  S
C145        H146   1.111       .  S
C145        C150   1.539   1_655  S
C145       C1031   1.528       .  S
C145       C1032   1.540       .  S
C147       C1023   1.528   1_455  S
C147        C150   1.372       .  D
C147        C484   1.474       .  S
C148        C151   1.373       .  D
C148        C463   1.487       .  S
C149       C1023   1.541       .  S
C149       C1032   1.385       .  D
C149        C868   1.492       .  S
C150        C415   1.488       .  S
C151       C1025   1.532       .  S
C151        C436   1.481       .  S
C152       C1025   1.541       .  S
C152       C1029   1.385       .  D
C152        C607   1.492       .  S
Zr153       O155   2.405       .  S
Zr153       O156   2.429       .  S
Zr153       O159   2.439       .  S
Zr153       O161   2.379       .  S
Zr153       O162   2.377       .  S
Zr153       O163   2.408       .  S
Zr153       O164   2.404       .  S
Zr153       O154   2.436       .  S
O154        H210   0.990       .  S
O154        H218   0.990       .  S
O155        C175   1.280       .  A
O156        C177   1.284       .  A
O157       Zr167   2.416       .  S
O157        C176   1.283       .  A
O158       Zr166   2.419       .  S
O158        C177   1.282       .  A
O159        C176   1.287       .  A
O160       Zr168   2.465   1_565  S
O160        C175   1.289       .  A
O161       Zr166   2.381       .  S
O161       Zr168   2.366   1_565  S
O162       Zr167   2.375       .  S
O162       Zr168   2.368   1_565  S
O162        H197   0.967       .  S
O163       Zr166   2.392       .  S
O163       Zr183   2.403       .  S
O163        H200   0.966       .  S
O164       Zr167   2.392       .  S
O164       Zr183   2.409       .  S
Zr165       O184   2.409       .  S
Zr165       O192   2.441       .  S
Zr165       O180   2.441       .  S
Zr165       O171   2.407       .  S
Zr165       O172   2.408       .  S
Zr165       O173   2.376       .  S
Zr165       O174   2.381       .  S
Zr165       O190   2.438       .  S
Zr166       O179   2.428   1_565  S
Zr166       O172   2.397   1_565  S
Zr166       O173   2.378   1_565  S
Zr166       O185   2.436       .  S
Zr166       O178   2.435   1_565  S
Zr167       O193   2.415   1_565  S
Zr167       O171   2.397   1_565  S
Zr167       O174   2.376   1_565  S
Zr167       O169   2.438       .  S
Zr167       O191   2.437   1_565  S
Zr168       O171   2.412       .  S
Zr168       O172   2.412       .  S
Zr168       O194   2.437       .  S
Zr168       O195   2.436       .  S
Zr168       O170   2.437       .  S
O169        H206   0.990       .  S
O170        H201   0.990       .  S
O170        H215   0.989       .  S
O172        H198   0.966       .  S
O173       Zr183   2.371   1_545  S
O174       Zr183   2.369   1_545  S
O174        H199   0.965       .  S
C175        C364   1.478       .  S
C176        C460   1.485       .  S
C177        C487   1.461       .  S
O178        H214   0.990       .  S
O179        C181   1.284       .  A
O180        C181   1.286       .  A
C181        C700   1.471       .  S
O182       Zr183   2.441       .  S
O182        H211   0.990       .  S
Zr183       O188   2.449   1_565  S
Zr183       O186   2.437       .  S
Zr183       O187   2.443       .  S
O184        C189   1.281       .  A
O185        H202   0.990       .  S
O185        H217   0.990       .  S
O186        H203   0.990       .  S
O187        H207   0.990       .  S
O187        H216   0.990       .  S
O188        C189   1.286       .  A
C189        C388   1.472       .  S
O190        H209   0.990       .  S
O190        H213   0.990       .  S
O191        H205   0.990       .  S
O191        H212   0.990   1_545  S
O192        C196   1.287       .  A
O193        C196   1.283       .  A
O194        H204   0.990       .  S
O195        H208   0.990       .  S
C196        C679   1.483       .  S
C219        H220   1.111       .  S
C219        C225   1.535       .  S
C219        C224   1.532       .  S
C219        C223   1.526       .  S
C221        H222   1.111       .  S
C221        C227   1.527       .  S
C221        C226   1.535       .  S
C221        C228   1.541       .  S
C223        C226   1.370       .  D
C223        C580   1.471       .  S
C224        C227   1.370       .  D
C224        C556   1.469       .  S
C225        C228   1.382       .  D
C225        C340   1.491       .  S
C226        C820   1.481       .  S
C227        C847   1.474       .  S
C228        C367   1.477       .  S
Zr229       O231   2.417       .  S
Zr229       O232   2.437       .  S
Zr229       O235   2.440       .  S
Zr229       O237   2.375       .  S
Zr229       O238   2.381       .  S
Zr229       O239   2.412       .  S
Zr229       O240   2.407       .  S
Zr229       O230   2.439       .  S
O230        H286   0.991       .  S
O230        H294   0.990       .  S
O231        C251   1.283       .  A
O232        C253   1.285       .  A
O233       Zr243   2.419       .  S
O233        C252   1.283       .  A
O234       Zr242   2.419       .  S
O234        C253   1.282       .  A
O235        C252   1.287       .  A
O236       Zr244   2.456       .  S
O236        C251   1.288       .  A
O237       Zr242   2.377       .  S
O237       Zr244   2.360       .  S
O238       Zr243   2.382       .  S
O238       Zr244   2.371       .  S
O238        H273   0.967       .  S
O239       Zr242   2.399       .  S
O239       Zr259   2.412       .  S
O239        H276   0.967       .  S
O240       Zr243   2.396       .  S
O240       Zr259   2.410       .  S
Zr241       O260   2.407       .  S
Zr241       O268   2.437       .  S
Zr241       O256   2.437       .  S
Zr241       O247   2.404       .  S
Zr241       O248   2.406       .  S
Zr241       O249   2.378       .  S
Zr241       O250   2.379       .  S
Zr241       O266   2.436       .  S
Zr242       O255   2.420       .  S
Zr242       O248   2.395       .  S
Zr242       O249   2.379       .  S
Zr242       O261   2.434       .  S
Zr242       O254   2.439       .  S
Zr243       O269   2.428       .  S
Zr243       O247   2.389       .  S
Zr243       O250   2.377       .  S
Zr243       O245   2.434       .  S
Zr243       O267   2.438       .  S
Zr244       O247   2.407       .  S
Zr244       O248   2.404       .  S
Zr244       O270   2.436       .  S
Zr244       O271   2.433       .  S
Zr244       O246   2.433       .  S
O245        H282   0.990       .  S
O246        H277   0.990       .  S
O246        H291   0.990       .  S
O248        H274   0.966       .  S
O249       Zr259   2.367       .  S
O250       Zr259   2.368       .  S
O250        H275   0.965       .  S
C251        C316   1.484       .  S
C252        C631   1.480       .  S
C253        C655   1.461       .  S
O254        H290   0.990       .  S
O255        C257   1.282       .  A
O256        C257   1.285       .  A
C257        C439   1.463       .  S
O258       Zr259   2.439       .  S
O258        H287   0.990       .  S
Zr259       O264   2.463       .  S
Zr259       O262   2.435       .  S
Zr259       O263   2.441       .  S
O260        C265   1.281       .  A
O261        H278   0.990       .  S
O261        H293   0.991       .  S
O262        H279   0.990       .  S
O263        H283   0.990       .  S
O263        H292   0.990       .  S
O264        C265   1.290       .  A
C265        C343   1.485       .  S
O266        H285   0.990       .  S
O266        H289   0.990       .  S
O267        H281   0.990       .  S
O267        H288   0.990       .  S
O268        C272   1.287       .  A
O269        C272   1.285       .  A
O270        H280   0.990       .  S
O271        H284   0.990       .  S
C272        C412   1.486       .  S
C295        H296   1.111       .  S
C295        C301   1.541       .  S
C295        C300   1.533       .  S
C295        C299   1.537       .  S
C297        H298   1.111       .  S
C297        C303   1.536       .  S
C297        C302   1.529       .  S
C297        C304   1.537       .  S
C299        C302   1.373       .  D
C299        C532   1.481       .  S
C300        C303   1.373       .  D
C300        C511   1.484       .  S
C301        C304   1.383       .  D
C301        C319   1.490       .  S
C302        C748   1.477       .  S
C303        C772   1.480       .  S
C304        C391   1.484       .  S
C305        C306   1.397       .  A
C305        C310   1.402       .  A
C305        H321   1.084       .  S
C306        C307   1.402       .  A
C306        H322   1.081       .  S
C307        C317   1.399       .  A
C307        C308   1.409       .  A
C308        C314   1.413       .  A
C308        C309   1.414       .  A
C309        C311   1.410       .  A
C309        C310   1.412       .  A
C310        C318   1.401       .  A
C311        C320   1.406       .  A
C311        C312   1.405       .  A
C312        C313   1.403       .  A
C312        H323   1.084       .  S
C313        C314   1.405       .  A
C313        H324   1.083       .  S
C314        C315   1.411       .  A
C315        C316   1.409       .  A
C315        H325   1.084       .  S
C316        C317   1.407       .  A
C317        H326   1.084       .  S
C318        C319   1.405       .  A
C318        H327   1.083       .  S
C319        C320   1.409       .  A
C320        H328   1.084       .  S
C329        C330   1.398       .  A
C329        C334   1.403       .  A
C329        H345   1.079       .  S
C330        C331   1.402       .  A
C330        H346   1.084       .  S
C331        C341   1.404       .  A
C331        C332   1.413       .  A
C332        C338   1.409       .  A
C332        C333   1.414       .  A
C333        C335   1.414       .  A
C333        C334   1.408       .  A
C334        C342   1.401       .  A
C335        C344   1.410       .  A
C335        C336   1.404       .  A
C336        C337   1.402       .  A
C336        H347   1.083       .  S
C337        C338   1.405       .  A
C337        H348   1.084       .  S
C338        C339   1.404       .  A
C339        C340   1.407       .  A
C339        H349   1.082       .  S
C340        C341   1.406       .  A
C341        H350   1.084       .  S
C342        C343   1.409       .  A
C342        H351   1.085       .  S
C343        C344   1.407       .  A
C344        H352   1.084       .  S
C353        C354   1.401       .  A
C353        C358   1.404       .  A
C353        H369   1.084       .  S
C354        C355   1.405       .  A
C354        H370   1.083       .  S
C355        C365   1.409       .  A
C355        C356   1.414       .  A
C356        C362   1.410       .  A
C356        C357   1.412       .  A
C357        C359   1.413       .  A
C357        C358   1.411       .  A
C358        C366   1.404       .  A
C359        C368   1.400       .  A
C359        C360   1.402       .  A
C360        C361   1.397       .  A
C360        H371   1.084       .  S
C361        C362   1.403       .  A
C361        H372   1.082       .  S
C362        C363   1.400       .  A
C363        C364   1.406       .  A
C363        H373   1.085       .  S
C364        C365   1.406       .  A
C365        H374   1.084       .  S
C366        C367   1.405       .  A
C366        H375   1.084       .  S
C367        C368   1.402       .  A
C368        H376   1.084       .  S
C377        C378   1.401       .  A
C377        C382   1.404       .  A
C377        H393   1.083       .  S
C378        C379   1.404       .  A
C378        H394   1.083       .  S
C379        C389   1.407       .  A
C379        C380   1.414       .  A
C380        C386   1.410       .  A
C380        C381   1.412       .  A
C381        C383   1.413       .  A
C381        C382   1.411       .  A
C382        C390   1.404       .  A
C383        C392   1.403       .  A
C383        C384   1.403       .  A
C384        C385   1.398       .  A
C384        H395   1.084       .  S
C385        C386   1.403       .  A
C385        H396   1.082       .  S
C386        C387   1.399       .  A
C387        C388   1.405       .  A
C387        H397   1.085       .  S
C388        C389   1.404       .  A
C389        H398   1.084       .  S
C390        C391   1.405       .  A
C390        H399   1.084       .  S
C391        C392   1.405       .  A
C392        H400   1.084       .  S
C401        C402   1.400       .  A
C401        C406   1.403       .  A
C401        H417   1.083       .  S
C402        C403   1.404       .  A
C402        H418   1.084       .  S
C403        C413   1.403       .  A
C403        C404   1.410       .  A
C404        C410   1.412       .  A
C404        C405   1.413       .  A
C405        C407   1.410       .  A
C405        C406   1.413       .  A
C406        C414   1.406       .  A
C407        C416   1.402       .  A
C407        C408   1.403       .  A
C408        C409   1.399       .  A
C408        H419   1.084       .  S
C409        C410   1.402       .  A
C409        H420   1.080       .  S
C410        C411   1.405       .  A
C411        C412   1.408       .  A
C411        H421   1.084       .  S
C412        C413   1.410       .  A
C413        H422   1.084       .  S
C414        C415   1.404       .  A
C414        H423   1.084       .  S
C415        C416   1.407       .  A
C416        H424   1.083       .  S
C425        C426   1.400       .  A
C425        C430   1.404       .  A
C425        H441   1.084       .  S
C426        C427   1.404       .  A
C426        H442   1.084       .  S
C427        C437   1.400       .  A
C427        C428   1.410       .  A
C428        C434   1.414       .  A
C428        C429   1.411       .  A
C429        C431   1.411       .  A
C429        C430   1.414       .  A
C430        C438   1.406       .  A
C431        C440   1.399       .  A
C431        C432   1.403       .  A
C432        C433   1.398       .  A
C432        H443   1.084       .  S
C433        C434   1.403       .  A
C433        H444   1.083       .  S
C434        C435   1.403       .  A
C435        C436   1.401       .  A
C435        H445   1.085       .  S
C436        C437   1.406       .  A
C437        H446   1.084       .  S
C438        C439   1.403       .  A
C438        H447   1.084       .  S
C439        C440   1.401       .  A
C440        H448   1.085       .  S
C449        C450   1.399       .  A
C449        C454   1.403       .  A
C449        H465   1.083       .  S
C450        C451   1.404       .  A
C450        H466   1.084       .  S
C451        C461   1.399       .  A
C451        C452   1.408       .  A
C452        C458   1.413       .  A
C452        C453   1.412       .  A
C453        C455   1.409       .  A
C453        C454   1.414       .  A
C454        C462   1.406       .  A
C455        C464   1.400       .  A
C455        C456   1.404       .  A
C456        C457   1.399       .  A
C456        H467   1.084       .  S
C457        C458   1.403       .  A
C457        H468   1.083       .  S
C458        C459   1.406       .  A
C459        C460   1.408       .  A
C459        H469   1.084       .  S
C460        C461   1.410       .  A
C461        H470   1.084       .  S
C462        C463   1.403       .  A
C462        H471   1.084       .  S
C463        C464   1.408       .  A
C464        H472   1.084       .  S
C473        C474   1.397       .  A
C473        C478   1.402       .  A
C473        H489   1.084       .  S
C474        C475   1.402       .  A
C474        H490   1.084       .  S
C475        C485   1.399       .  A
C475        C476   1.412       .  A
C476        C482   1.413       .  A
C476        C477   1.409       .  A
C477        C479   1.412       .  A
C477        C478   1.413       .  A
C478        C486   1.400       .  A
C479        C488   1.402       .  A
C479        C480   1.404       .  A
C480        C481   1.400       .  A
C480        H491   1.084       .  S
C481        C482   1.404       .  A
C481        H492   1.083       .  S
C482        C483   1.403       .  A
C483        C484   1.402       .  A
C483        H493   1.084       .  S
C484        C485   1.401       .  A
C485        H494   1.085       .  S
C486        C487   1.400       .  A
C486        H495   1.085       .  S
C487        C488   1.403       .  A
C488        H496   1.085       .  S
C497        C498   1.401       .  A
C497        C502   1.403       .  A
C497        H513   1.084       .  S
C498        C499   1.405       .  A
C498        H514   1.083       .  S
C499        C509   1.407       .  A
C499        C500   1.412       .  A
C500        C506   1.412       .  A
C500        C501   1.415       .  A
C501        C503   1.412       .  A
C501        C502   1.412       .  A
C502        C510   1.405       .  A
C503        C512   1.407       .  A
C503        C504   1.404       .  A
C504        C505   1.401       .  A
C504        H515   1.083       .  S
C505        C506   1.405       .  A
C505        H516   1.084       .  S
C506        C507   1.407       .  A
C507        C508   1.407       .  A
C507        H517   1.085       .  S
C508        C509   1.408       .  A
C509        H518   1.084       .  S
C510        C511   1.403       .  A
C510        H519   1.084       .  S
C511        C512   1.406       .  A
C512        H520   1.085       .  S
C521        C522   1.399       .  A
C521        C526   1.403       .  A
C521        H537   1.082       .  S
C522        C523   1.403       .  A
C522        H538   1.084       .  S
C523        C533   1.398       .  A
C523        C524   1.409       .  A
C524        C530   1.413       .  A
C524        C525   1.409       .  A
C525        C527   1.408       .  A
C525        C526   1.413       .  A
C526        C534   1.404       .  A
C527        C536   1.398       .  A
C527        C528   1.404       .  A
C528        C529   1.397       .  A
C528        H539   1.084       .  S
C529        C530   1.401       .  A
C529        H540   1.084       .  S
C530        C531   1.401       .  A
C531        C532   1.401       .  A
C531        H541   1.084       .  S
C532        C533   1.405       .  A
C533        H542   1.080       .  S
C534        C535   1.408       .  A
C534        H543   1.084       .  S
C535        C536   1.409       .  A
C536        H544   1.084       .  S
C545        C546   1.397       .  A
C545        C550   1.403       .  A
C545        H561   1.084       .  S
C546        C547   1.402       .  A
C546        H562   1.084       .  S
C547        C557   1.397       .  A
C547        C548   1.411       .  A
C548        C554   1.413       .  A
C548        C549   1.408       .  A
C549        C551   1.411       .  A
C549        C550   1.412       .  A
C550        C558   1.400       .  A
C551        C560   1.399       .  A
C551        C552   1.404       .  A
C552        C553   1.398       .  A
C552        H563   1.084       .  S
C553        C554   1.402       .  A
C553        H564   1.084       .  S
C554        C555   1.400       .  A
C555        C556   1.400       .  A
C555        H565   1.085       .  S
C556        C557   1.401       .  A
C557        H566   1.083       .  S
C558        C559   1.405       .  A
C558        H567   1.084       .  S
C559        C560   1.407       .  A
C560        H568   1.084       .  S
C569        C570   1.398       .  A
C569        C574   1.403       .  A
C569        H585   1.084       .  S
C570        C571   1.403       .  A
C570        H586   1.084       .  S
C571        C581   1.401       .  A
C571        C572   1.413       .  A
C572        C578   1.411       .  A
C572        C573   1.408       .  A
C573        C575   1.413       .  A
C573        C574   1.411       .  A
C574        C582   1.399       .  A
C575        C584   1.402       .  A
C575        C576   1.403       .  A
C576        C577   1.397       .  A
C576        H587   1.083       .  S
C577        C578   1.402       .  A
C577        H588   1.084       .  S
C578        C579   1.397       .  A
C579        C580   1.401       .  A
C579        H589   1.085       .  S
C580        C581   1.401       .  A
C581        H590   1.083       .  S
C582        C583   1.401       .  A
C582        H591   1.083       .  S
C583        C584   1.402       .  A
C584        H592   1.085       .  S
C593        C594   1.399       .  A
C593        C598   1.403       .  A
C593        H609   1.084       .  S
C594        C595   1.404       .  A
C594        H610   1.084       .  S
C595        C605   1.401       .  A
C595        C596   1.410       .  A
C596        C597   1.414       .  A
C596       C1482   1.414       .  A
C597        C598   1.412       .  A
C597       C1479   1.410       .  A
C598        C606   1.404       .  A
C599        C608   1.400       .  A
C599        C600   1.403       .  A
C599       C1477   1.410   1_455  A
C600        C601   1.398       .  A
C600        H611   1.083       .  S
C601        C602   1.402       .  A
C601        H612   1.084       .  S
C602        C603   1.403       .  A
C602       C1476   1.414   1_455  A
C603       C1484   1.402   1_455  A
C603        H613   1.084       .  S
C604        C605   1.408       .  A
C604       C1483   1.406       .  A
C605        H614   1.083       .  S
C606        C607   1.408       .  A
C606        H615   1.084       .  S
C607       C1488   1.407       .  A
C608       C1487   1.405   1_455  A
C608        H616   1.084       .  S
C617        C618   1.398       .  A
C617        C622   1.403       .  A
C617        H633   1.081       .  S
C618        C619   1.403       .  A
C618        H634   1.084       .  S
C619        C629   1.400       .  A
C619        C620   1.410       .  A
C620        C626   1.413       .  A
C620        C621   1.411       .  A
C621        C623   1.409       .  A
C621        C622   1.412       .  A
C622        C630   1.404       .  A
C623        C632   1.401       .  A
C623        C624   1.404       .  A
C624        C625   1.399       .  A
C624        H635   1.084       .  S
C625        C626   1.403       .  A
C625        H636   1.084       .  S
C626        C627   1.405       .  A
C627        C628   1.403       .  A
C627        H637   1.084       .  S
C628        C629   1.404       .  A
C629        H638   1.084       .  S
C630        C631   1.407       .  A
C630        H639   1.084       .  S
C631        C632   1.408       .  A
C632        H640   1.084       .  S
C641        C642   1.400       .  A
C641        C646   1.404       .  A
C641        H657   1.084       .  S
C642        C643   1.404       .  A
C642        H658   1.084       .  S
C643        C653   1.405       .  A
C643        C644   1.414       .  A
C644        C650   1.410       .  A
C644        C645   1.410       .  A
C645        C647   1.415       .  A
C645        C646   1.411       .  A
C646        C654   1.401       .  A
C647        C656   1.403       .  A
C647        C648   1.402       .  A
C648        C649   1.397       .  A
C648        H659   1.083       .  S
C649        C650   1.403       .  A
C649        H660   1.084       .  S
C650        C651   1.398       .  A
C651        C652   1.404       .  A
C651        H661   1.085       .  S
C652        C653   1.403       .  A
C653        H662   1.084       .  S
C654        C655   1.403       .  A
C654        H663   1.085       .  S
C655        C656   1.400       .  A
C656        H664   1.084       .  S
C665        C666   1.397       .  A
C665        C670   1.403       .  A
C665        H681   1.084       .  S
C666        C667   1.402       .  A
C666        H682   1.084       .  S
C667        C677   1.402       .  A
C667        C668   1.413       .  A
C668        C674   1.410       .  A
C668        C669   1.411       .  A
C669        C671   1.413       .  A
C669        C670   1.409       .  A
C670        C678   1.397       .  A
C671        C680   1.407       .  A
C671        C672   1.404       .  A
C672        C673   1.401       .  A
C672        H683   1.084       .  S
C673        C674   1.405       .  A
C673        H684   1.084       .  S
C674        C675   1.403       .  A
C675        C676   1.409       .  A
C675        H685   1.084       .  S
C676        C677   1.401       .  A
C677        H686   1.084       .  S
C678        C679   1.409       .  A
C678        H687   1.084       .  S
C679        C680   1.409       .  A
C680        H688   1.084       .  S
C689        C690   1.399       .  A
C689        C694   1.403       .  A
C689        H705   1.084       .  S
C690        C691   1.404       .  A
C690        H706   1.084       .  S
C691        C701   1.404       .  A
C691        C692   1.412       .  A
C692        C698   1.413       .  A
C692        C693   1.413       .  A
C693        C695   1.413       .  A
C693        C694   1.412       .  A
C694        C702   1.403       .  A
C695        C704   1.404       .  A
C695        C696   1.403       .  A
C696        C697   1.400       .  A
C696        H707   1.084       .  S
C697        C698   1.404       .  A
C697        H708   1.084       .  S
C698        C699   1.405       .  A
C699        C700   1.405       .  A
C699        H709   1.085       .  S
C700        C701   1.403       .  A
C701        H710   1.084       .  S
C702        C703   1.404       .  A
C702        H711   1.085       .  S
C703        C704   1.402       .  A
C704        H712   1.084       .  S
C713        C714   1.402       .  A
C713        C718   1.404       .  A
C713        H729   1.084       .  S
C714        C715   1.405       .  A
C714        H730   1.083       .  S
C715        C725   1.406       .  A
C715       C1596   1.411   1_455  A
C716        C722   1.413       .  A
C716        C717   1.412       .  A
C716       C1595   1.410       .  A
C717        C719   1.408       .  A
C717       C1598   1.414       .  A
C718        C726   1.407       .  A
C718       C1597   1.413   1_455  A
C719        C728   1.398       .  A
C719        C720   1.402       .  A
C720        C721   1.397       .  A
C720        H731   1.080       .  S
C721        C722   1.402       .  A
C721        H732   1.084       .  S
C722        C723   1.402       .  A
C723        C724   1.406       .  A
C723        H733   1.084       .  S
C724       C1605   1.407       .  A
C725       C1604   1.407   1_455  A
C725        H734   1.084       .  S
C726       C1607   1.405   1_455  A
C726        H735   1.084       .  S
C727        C728   1.406       .  A
C727       C1606   1.405       .  A
C728        H736   1.085       .  S
C737        C738   1.400       .  A
C737        C742   1.405       .  A
C737        H753   1.083       .  S
C738        C739   1.403       .  A
C738        H754   1.084       .  S
C739        C749   1.403       .  A
C739        C740   1.413       .  A
C740        C746   1.412       .  A
C740        C741   1.413       .  A
C741        C743   1.412       .  A
C741        C742   1.412       .  A
C742        C750   1.406       .  A
C743        C752   1.405       .  A
C743        C744   1.404       .  A
C744        C745   1.400       .  A
C744        H755   1.084       .  S
C745        C746   1.404       .  A
C745        H756   1.084       .  S
C746        C747   1.403       .  A
C747        C748   1.403       .  A
C747        H757   1.085       .  S
C748        C749   1.402       .  A
C749        H758   1.084       .  S
C750        C751   1.406       .  A
C750        H759   1.084       .  S
C751        C752   1.406       .  A
C752        H760   1.085       .  S
C761        C762   1.399       .  A
C761        C766   1.403       .  A
C761        H777   1.082       .  S
C762        C763   1.403       .  A
C762        H778   1.084       .  S
C763        C773   1.398       .  A
C763        C764   1.409       .  A
C764        C770   1.413       .  A
C764        C765   1.411       .  A
C765        C767   1.408       .  A
C765        C766   1.413       .  A
C766        C774   1.406       .  A
C767        C776   1.401       .  A
C767        C768   1.405       .  A
C768        C769   1.399       .  A
C768        H779   1.083       .  S
C769        C770   1.402       .  A
C769        H780   1.084       .  S
C770        C771   1.403       .  A
C771        C772   1.402       .  A
C771        H781   1.084       .  S
C772        C773   1.404       .  A
C773        H782   1.081       .  S
C774        C775   1.408       .  A
C774        H783   1.084       .  S
C775        C776   1.412       .  A
C776        H784   1.084       .  S
C785        C786   1.402       .  A
C785        C790   1.405       .  A
C785        H801   1.083       .  S
C786        C787   1.404       .  A
C786        H802   1.084       .  S
C787        C797   1.409       .  A
C787       C1668   1.413       .  A
C788        C794   1.411       .  A
C788        C789   1.414   1_455  A
C788       C1667   1.413   1_455  A
C789        C791   1.412   1_655  A
C789       C1670   1.412       .  A
C790        C798   1.406       .  A
C790       C1669   1.410       .  A
C791        C800   1.402       .  A
C791        C792   1.403       .  A
C792        C793   1.398       .  A
C792        H803   1.084       .  S
C793        C794   1.403       .  A
C793        H804   1.081       .  S
C794        C795   1.402       .  A
C795        C796   1.406       .  A
C795        H805   1.085       .  S
C796        C917   1.474       .  S
C796       C1677   1.405   1_455  A
C797       C1676   1.407       .  A
C797        H806   1.084       .  S
C798       C1679   1.408       .  A
C798        H807   1.084       .  S
C799        C800   1.405   1_655  A
C799       C1678   1.409       .  A
C800        H808   1.084       .  S
C809        C810   1.401       .  A
C809        C814   1.405       .  A
C809        H825   1.084       .  S
C810        C811   1.404       .  A
C810        H826   1.084       .  S
C811        C821   1.405       .  A
C811        C812   1.413       .  A
C812        C818   1.411       .  A
C812        C813   1.411       .  A
C813        C815   1.412       .  A
C813        C814   1.411       .  A
C814        C822   1.404       .  A
C815        C824   1.400       .  A
C815        C816   1.402       .  A
C816        C817   1.396       .  A
C816        H827   1.084       .  S
C817        C818   1.402       .  A
C817        H828   1.084       .  S
C818        C819   1.397       .  A
C819        C820   1.403       .  A
C819        H829   1.084       .  S
C820        C821   1.404       .  A
C821        H830   1.082       .  S
C822        C823   1.411       .  A
C822        H831   1.084       .  S
C823        C824   1.405       .  A
C824        H832   1.084       .  S
C833        C834   1.398       .  A
C833        C838   1.403       .  A
C833        H849   1.084       .  S
C834        C835   1.403       .  A
C834        H850   1.084       .  S
C835        C845   1.400       .  A
C835        C836   1.412       .  A
C836        C842   1.412       .  A
C836        C837   1.410       .  A
C837        C839   1.412       .  A
C837        C838   1.412       .  A
C838        C846   1.401       .  A
C839        C848   1.401       .  A
C839        C840   1.403       .  A
C840        C841   1.399       .  A
C840        H851   1.084       .  S
C841        C842   1.404       .  A
C841        H852   1.084       .  S
C842        C843   1.402       .  A
C843        C844   1.404       .  A
C843        H853   1.082       .  S
C844        C845   1.403       .  A
C845        H854   1.085       .  S
C846        C847   1.401       .  A
C846        H855   1.083       .  S
C847        C848   1.402       .  A
C848        H856   1.084       .  S
C857        C858   1.398       .  A
C857        C862   1.404       .  A
C857        H873   1.084       .  S
C858        C859   1.403       .  A
C858        H874   1.084       .  S
C859        C869   1.402       .  A
C859        C860   1.412       .  A
C860        C861   1.411       .  A
C860       C1746   1.410   1_455  A
C861        C862   1.409       .  A
C861       C1743   1.414   1_455  A
C862        C870   1.398       .  A
C863        C872   1.408       .  A
C863        C864   1.403       .  A
C863       C1741   1.414       .  A
C864        C865   1.401       .  A
C864        H875   1.083       .  S
C865        C866   1.404       .  A
C865        H876   1.083       .  S
C866        C867   1.403       .  A
C866       C1740   1.410       .  A
C867       C1748   1.406       .  A
C867        H877   1.084       .  S
C868        C869   1.408   1_655  A
C868       C1747   1.406       .  A
C869        H878   1.083       .  S
C870        C871   1.407   1_455  A
C870        H879   1.083       .  S
C871       C1752   1.405       .  A
C872       C1751   1.405       .  A
C872        H880   1.084       .  S
Zr881       O883   2.403       .  S
Zr881       O884   2.452       .  S
Zr881       O889   2.369       .  S
Zr881       O891   2.398   1_554  S
O883        C903   1.280       .  A
O884        C905   1.288       .  A
O885       Zr895   2.424   1_554  S
O885        C904   1.285       .  A
O886       Zr894   2.413       .  S
O886        C905   1.281       .  A
O887        C904   1.287       .  A
O888        C903   1.289       .  A
O889       Zr894   2.376       .  S
O890       Zr895   2.383   1_554  S
O890       Zr896   2.362   1_565  S
O890        H925   0.967       .  S
O891       Zr894   2.394   1_556  S
O891       Zr911   2.404       .  S
O891        H928   0.968       .  S
O892       Zr895   2.399       .  S
Zr893       O912   2.410       .  S
Zr893       O920   2.433   1_455  S
Zr893       O899   2.406   1_456  S
Zr893       O902   2.379   1_455  S
Zr893       O918   2.431       .  S
Zr894       O907   2.415   1_564  S
Zr894       O900   2.395   1_565  S
Zr894       O901   2.382   1_564  S
Zr894       O913   2.438   1_554  S
Zr894       O906   2.437   1_565  S
Zr895       O921   2.434   1_565  S
Zr895       O899   2.392   1_566  S
Zr895       O902   2.377   1_565  S
Zr895       O897   2.433       .  S
Zr895       O919   2.434   1_566  S
Zr896       O899   2.408       .  S
Zr896       O922   2.437       .  S
Zr896       O923   2.433       .  S
O897        H934   0.990       .  S
O898        H929   0.990       .  S
O898        H943   0.991       .  S
O900        H926   0.968       .  S
O901       Zr911   2.369   1_545  S
O902        H927   0.965       .  S
C903       C1751   1.479       .  S
C904       C1703   1.482       .  S
C905       C1724   1.473       .  S
O906        H942   0.990       .  S
O907        C909   1.283       .  A
O908        C909   1.289       .  A
C909       C1655   1.482       .  S
Zr911       O914   2.437       .  S
O912        C917   1.281       .  A
O913        H930   0.990       .  S
O913        H945   0.990       .  S
O914        H931   0.990       .  S
O915        H935   0.990       .  S
O915        H944   0.990       .  S
O916        C917   1.288       .  A
O918        H937   0.990   1_456  S
O919        H933   0.990       .  S
O919        H940   0.990       .  S
O920        C924   1.285       .  A
O921        C924   1.285       .  A
O922        H932   0.990       .  S
C924       C1631   1.466       .  S
C947        H948   1.111       .  S
C947        C952   1.536       .  S
C949        H950   1.111       .  S
C949        C954   1.534       .  S
C951        C954   1.371       .  D
C951       C1583   1.474       .  S
C952        C955   1.372       .  D
C952       C1556   1.481       .  S
C953       C1679   1.488       .  S
C954       C1508   1.486       .  S
C955       C1532   1.476       .  S
C956       C1604   1.485       .  S
Zr957       O959   2.399   1_455  S
Zr957       O960   2.437   1_455  S
Zr957       O965   2.382   1_455  S
Zr957       O967   2.401   1_456  S
O959        C979   1.279       .  A
O960        C981   1.287       .  A
O961       Zr971   2.434       .  S
O961        C980   1.285       .  A
O962       Zr970   2.404       .  S
O962        C981   1.281       .  A
O963        C980   1.287       .  A
O964       Zr972   2.453       .  S
O964        C979   1.287   1_455  A
O965       Zr970   2.379       .  S
O965       Zr972   2.366   1_655  S
O966       Zr971   2.383       .  S
O966       H1001   0.967       .  S
O967       Zr970   2.396   1_554  S
O967       Zr987   2.396   1_655  S
O967       H1004   0.968       .  S
O968       Zr971   2.393   1_554  S
Zr969       O988   2.397       .  S
Zr969       O984   2.437   1_455  S
Zr969       O976   2.399   1_454  S
Zr969       O977   2.372   1_455  S
Zr970       O983   2.419   1_556  S
Zr970       O976   2.390       .  S
Zr970       O977   2.373   1_556  S
Zr970       O989   2.435   1_556  S
Zr970       O982   2.440       .  S
Zr971       O997   2.414   1_556  S
Zr971       O975   2.399       .  S
Zr971       O978   2.387   1_556  S
Zr971       O973   2.433   1_556  S
Zr971       O995   2.434       .  S
Zr972       O976   2.407   1_455  S
Zr972       O974   2.440   1_455  S
O973       H1010   0.990       .  S
O974       H1005   0.990       .  S
O974       H1019   0.990       .  S
O976       H1002   0.968       .  S
O977       Zr987   2.371   1_655  S
O978       H1003   0.964       .  S
C979       C1607   1.474       .  S
C980       C1388   1.478       .  S
C981       C1415   1.477       .  S
O982       H1018   0.990       .  S
O983        C985   1.282       .  A
O984        C985   1.285       .  A
C985       C1463   1.462       .  S
Zr987       O992   2.445   1_455  S
Zr987       O990   2.436   1_455  S
O988        C993   1.279   1_455  A
O989       H1006   0.990       .  S
O989       H1021   0.989       .  S
O990       H1007   0.990       .  S
O991       H1011   0.989       .  S
O991       H1020   0.990       .  S
O992        C993   1.286       .  A
C993       C1484   1.468       .  S
O994       H1013   0.990   1_554  S
O995       H1009   0.990       .  S
O995       H1016   0.990       .  S
O996       C1000   1.290       .  A
O997       C1000   1.283       .  A
O998       H1008   0.990       .  S
C1000      C1439   1.482       .  S
C1023      H1024   1.110       .  S
C1023      C1028   1.537       .  S
C1025      H1026   1.111       .  S
C1025      C1030   1.535       .  S
C1027      C1030   1.372       .  D
C1027      C1364   1.475       .  S
C1028      C1031   1.371       .  D
C1028      C1343   1.484       .  S
C1029      C1748   1.490       .  S
C1030      C1295   1.483       .  S
C1031      C1316   1.474       .  S
C1032      C1487   1.486       .  S
Zr1033     O1035   2.419       .  S
Zr1033     O1036   2.438       .  S
Zr1033     O1039   2.448       .  S
Zr1033     O1041   2.383       .  S
Zr1033     O1042   2.376       .  S
Zr1033     O1043   2.414       .  S
Zr1033     O1044   2.405       .  S
Zr1033     O1034   2.436       .  S
O1034      H1090   0.991       .  S
O1034      H1098   0.990       .  S
O1035      C1055   1.282       .  A
O1036      C1057   1.286       .  A
O1037     Zr1047   2.420       .  S
O1037      C1056   1.283       .  A
O1038     Zr1046   2.425       .  S
O1038      C1057   1.284       .  A
O1039      C1056   1.289       .  A
O1040     Zr1048   2.463   1_565  S
O1040      C1055   1.289       .  A
O1041     Zr1046   2.387       .  S
O1041     Zr1048   2.363   1_565  S
O1042     Zr1047   2.380       .  S
O1042     Zr1048   2.367   1_565  S
O1042      H1077   0.967       .  S
O1043     Zr1046   2.394       .  S
O1043     Zr1063   2.406       .  S
O1043      H1080   0.965       .  S
O1044     Zr1047   2.395       .  S
O1044     Zr1063   2.415       .  S
Zr1045     O1064   2.412       .  S
Zr1045     O1072   2.439       .  S
Zr1045     O1060   2.428       .  S
Zr1045     O1051   2.400       .  S
Zr1045     O1052   2.411       .  S
Zr1045     O1053   2.381       .  S
Zr1045     O1054   2.373       .  S
Zr1045     O1070   2.436       .  S
Zr1046     O1059   2.434   1_565  S
Zr1046     O1052   2.396   1_565  S
Zr1046     O1053   2.380   1_565  S
Zr1046     O1065   2.436       .  S
Zr1046     O1058   2.434   1_565  S
Zr1047     O1073   2.422   1_565  S
Zr1047     O1051   2.391   1_565  S
Zr1047     O1054   2.373   1_565  S
Zr1047     O1049   2.432       .  S
Zr1047     O1071   2.435   1_565  S
Zr1048     O1051   2.412       .  S
Zr1048     O1052   2.409       .  S
Zr1048     O1074   2.435       .  S
Zr1048     O1075   2.435       .  S
Zr1048     O1050   2.438       .  S
O1049      H1086   0.990       .  S
O1050      H1081   0.990       .  S
O1050      H1095   0.990       .  S
O1052      H1078   0.966       .  S
O1053     Zr1063   2.368   1_545  S
O1054     Zr1063   2.370   1_545  S
O1054      H1079   0.965       .  S
C1055      C1244   1.481       .  S
C1056      C1340   1.488       .  S
C1057      C1367   1.466       .  S
O1058      H1094   0.990       .  S
O1059      C1061   1.285       .  A
O1060      C1061   1.284       .  A
C1061      C1580   1.466       .  S
O1062     Zr1063   2.438       .  S
O1062      H1091   0.990       .  S
Zr1063     O1068   2.458   1_565  S
Zr1063     O1066   2.439       .  S
Zr1063     O1067   2.438       .  S
O1064      C1069   1.281       .  A
O1065      H1082   0.990       .  S
O1065      H1097   0.990       .  S
O1066      H1083   0.990       .  S
O1067      H1087   0.990       .  S
O1067      H1096   0.990       .  S
O1068      C1069   1.288       .  A
C1069      C1268   1.474       .  S
O1070      H1089   0.990       .  S
O1070      H1093   0.990       .  S
O1071      H1085   0.990       .  S
O1071      H1092   0.990       .  S
O1072      C1076   1.287       .  A
O1073      C1076   1.284       .  A
O1074      H1084   0.990       .  S
O1075      H1088   0.990       .  S
C1076      C1559   1.486       .  S
C1099      H1100   1.111       .  S
C1099      C1105   1.537       .  S
C1099      C1104   1.534       .  S
C1099      C1103   1.527       .  S
C1101      H1102   1.111       .  S
C1101      C1107   1.530       .  S
C1101      C1106   1.536       .  S
C1101      C1108   1.538       .  S
C1103      C1106   1.373       .  D
C1103      C1460   1.475       .  S
C1104      C1107   1.370       .  D
C1104      C1436   1.481       .  S
C1105      C1108   1.383       .  D
C1105      C1220   1.485       .  S
C1106      C1700   1.483       .  S
C1107      C1727   1.471       .  S
C1108      C1247   1.481       .  S
Zr1109     O1111   2.413       .  S
Zr1109     O1112   2.432       .  S
Zr1109     O1115   2.445       .  S
Zr1109     O1117   2.371       .  S
Zr1109     O1118   2.382       .  S
Zr1109     O1119   2.410       .  S
Zr1109     O1120   2.402       .  S
Zr1109     O1110   2.436       .  S
O1110      H1166   0.991       .  S
O1110      H1174   0.989       .  S
O1111      C1131   1.283       .  A
O1112      C1133   1.285       .  A
O1113     Zr1123   2.413       .  S
O1113      C1132   1.282       .  A
O1114     Zr1122   2.431       .  S
O1114      C1133   1.285       .  A
O1115      C1132   1.288       .  A
O1116     Zr1124   2.461       .  S
O1116      C1131   1.289       .  A
O1117     Zr1122   2.374       .  S
O1117     Zr1124   2.357       .  S
O1118     Zr1123   2.378       .  S
O1118     Zr1124   2.369       .  S
O1118      H1153   0.967       .  S
O1119     Zr1122   2.393       .  S
O1119     Zr1139   2.406       .  S
O1119      H1156   0.967       .  S
O1120     Zr1123   2.397       .  S
O1120     Zr1139   2.415       .  S
Zr1121     O1140   2.408       .  S
Zr1121     O1148   2.440       .  S
Zr1121     O1136   2.431       .  S
Zr1121     O1127   2.406       .  S
Zr1121     O1128   2.408       .  S
Zr1121     O1129   2.378       .  S
Zr1121     O1130   2.376       .  S
Zr1121     O1146   2.434       .  S
Zr1122     O1135   2.421       .  S
Zr1122     O1128   2.398       .  S
Zr1122     O1129   2.385       .  S
Zr1122     O1141   2.438       .  S
Zr1122     O1134   2.433       .  S
Zr1123     O1149   2.416       .  S
Zr1123     O1127   2.393       .  S
Zr1123     O1130   2.380       .  S
Zr1123     O1125   2.434       .  S
Zr1123     O1147   2.437       .  S
Zr1124     O1127   2.415       .  S
Zr1124     O1128   2.404       .  S
Zr1124     O1150   2.437       .  S
Zr1124     O1151   2.437       .  S
Zr1124     O1126   2.437       .  S
O1125      H1162   0.990       .  S
O1126      H1157   0.990       .  S
O1126      H1171   0.991       .  S
O1128      H1154   0.967       .  S
O1129     Zr1139   2.367       .  S
O1130     Zr1139   2.373       .  S
O1130      H1155   0.965       .  S
C1131      C1196   1.484       .  S
C1132      C1511   1.480       .  S
C1133      C1535   1.468       .  S
O1134      H1170   0.990       .  S
O1135      C1137   1.281       .  A
O1136      C1137   1.284       .  A
C1137      C1319   1.464       .  S
O1138     Zr1139   2.440       .  S
O1138      H1167   0.991       .  S
Zr1139     O1144   2.453       .  S
Zr1139     O1142   2.439       .  S
Zr1139     O1143   2.438       .  S
O1140      C1145   1.280       .  A
O1141      H1158   0.990       .  S
O1141      H1173   0.990       .  S
O1142      H1159   0.990       .  S
O1143      H1163   0.990       .  S
O1143      H1172   0.990       .  S
O1144      C1145   1.288       .  A
C1145      C1223   1.478       .  S
O1146      H1165   0.990       .  S
O1146      H1169   0.990       .  S
O1147      H1161   0.990       .  S
O1147      H1168   0.990       .  S
O1148      C1152   1.287       .  A
O1149      C1152   1.283       .  A
O1150      H1160   0.990       .  S
O1151      H1164   0.990       .  S
C1152      C1292   1.483       .  S
C1175      H1176   1.110       .  S
C1175      C1181   1.540       .  S
C1175      C1180   1.535       .  S
C1175      C1179   1.534       .  S
C1177      H1178   1.111       .  S
C1177      C1183   1.532       .  S
C1177      C1182   1.530       .  S
C1177      C1184   1.535       .  S
C1179      C1182   1.372       .  D
C1179      C1412   1.477       .  S
C1180      C1183   1.375       .  D
C1180      C1391   1.478       .  S
C1181      C1184   1.386       .  D
C1181      C1199   1.496       .  S
C1182      C1628   1.481       .  S
C1183      C1652   1.485       .  S
C1184      C1271   1.481       .  S
C1185      C1186   1.396       .  A
C1185      C1190   1.401       .  A
C1185      H1201   1.084       .  S
C1186      C1187   1.402       .  A
C1186      H1202   1.081       .  S
C1187      C1197   1.400       .  A
C1187      C1188   1.410       .  A
C1188      C1194   1.413       .  A
C1188      C1189   1.415       .  A
C1189      C1191   1.410       .  A
C1189      C1190   1.412       .  A
C1190      C1198   1.401       .  A
C1191      C1200   1.408       .  A
C1191      C1192   1.406       .  A
C1192      C1193   1.404       .  A
C1192      H1203   1.084       .  S
C1193      C1194   1.405       .  A
C1193      H1204   1.084       .  S
C1194      C1195   1.411       .  A
C1195      C1196   1.409       .  A
C1195      H1205   1.084       .  S
C1196      C1197   1.407       .  A
C1197      H1206   1.084       .  S
C1198      C1199   1.405       .  A
C1198      H1207   1.083       .  S
C1199      C1200   1.411       .  A
C1200      H1208   1.084       .  S
C1209      C1210   1.397       .  A
C1209      C1214   1.403       .  A
C1209      H1225   1.080       .  S
C1210      C1211   1.401       .  A
C1210      H1226   1.084       .  S
C1211      C1221   1.400       .  A
C1211      C1212   1.412       .  A
C1212      C1218   1.409       .  A
C1212      C1213   1.410       .  A
C1213      C1215   1.413       .  A
C1213      C1214   1.409       .  A
C1214      C1222   1.400       .  A
C1215      C1224   1.405       .  A
C1215      C1216   1.403       .  A
C1216      C1217   1.399       .  A
C1216      H1227   1.083       .  S
C1217      C1218   1.404       .  A
C1217      H1228   1.084       .  S
C1218      C1219   1.400       .  A
C1219      C1220   1.407       .  A
C1219      H1229   1.082       .  S
C1220      C1221   1.405       .  A
C1221      H1230   1.082       .  S
C1222      C1223   1.408       .  A
C1222      H1231   1.085       .  S
C1223      C1224   1.404       .  A
C1224      H1232   1.084       .  S
C1233      C1234   1.402       .  A
C1233      C1238   1.405       .  A
C1233      H1249   1.084       .  S
C1234      C1235   1.405       .  A
C1234      H1250   1.083       .  S
C1235      C1245   1.409       .  A
C1235      C1236   1.413       .  A
C1236      C1242   1.411       .  A
C1236      C1237   1.414       .  A
C1237      C1239   1.413       .  A
C1237      C1238   1.412       .  A
C1238      C1246   1.406       .  A
C1239      C1248   1.402       .  A
C1239      C1240   1.402       .  A
C1240      C1241   1.398       .  A
C1240      H1251   1.084       .  S
C1241      C1242   1.403       .  A
C1241      H1252   1.081       .  S
C1242      C1243   1.403       .  A
C1243      C1244   1.407       .  A
C1243      H1253   1.085       .  S
C1244      C1245   1.406       .  A
C1245      H1254   1.084       .  S
C1246      C1247   1.406       .  A
C1246      H1255   1.084       .  S
C1247      C1248   1.402       .  A
C1248      H1256   1.084       .  S
C1257      C1258   1.402       .  A
C1257      C1262   1.405       .  A
C1257      H1273   1.084       .  S
C1258      C1259   1.405       .  A
C1258      H1274   1.084       .  S
C1259      C1269   1.408       .  A
C1259      C1260   1.413       .  A
C1260      C1266   1.410       .  A
C1260      C1261   1.411       .  A
C1261      C1263   1.413       .  A
C1261      C1262   1.411       .  A
C1262      C1270   1.405       .  A
C1263      C1272   1.397       .  A
C1263      C1264   1.401       .  A
C1264      C1265   1.395       .  A
C1264      H1275   1.084       .  S
C1265      C1266   1.402       .  A
C1265      H1276   1.081       .  S
C1266      C1267   1.398       .  A
C1267      C1268   1.404       .  A
C1267      H1277   1.085       .  S
C1268      C1269   1.406       .  A
C1269      H1278   1.084       .  S
C1270      C1271   1.408       .  A
C1270      H1279   1.084       .  S
C1271      C1272   1.401       .  A
C1272      H1280   1.084       .  S
C1281      C1282   1.398       .  A
C1281      C1286   1.402       .  A
C1281      H1297   1.084       .  S
C1282      C1283   1.404       .  A
C1282      H1298   1.084       .  S
C1283      C1293   1.400       .  A
C1283      C1284   1.409       .  A
C1284      C1290   1.412       .  A
C1284      C1285   1.411       .  A
C1285      C1287   1.410       .  A
C1285      C1286   1.413       .  A
C1286      C1294   1.403       .  A
C1287      C1296   1.400       .  A
C1287      C1288   1.404       .  A
C1288      C1289   1.399       .  A
C1288      H1299   1.084       .  S
C1289      C1290   1.403       .  A
C1289      H1300   1.081       .  S
C1290      C1291   1.405       .  A
C1291      C1292   1.407       .  A
C1291      H1301   1.084       .  S
C1292      C1293   1.410       .  A
C1293      H1302   1.084       .  S
C1294      C1295   1.402       .  A
C1294      H1303   1.084       .  S
C1295      C1296   1.407       .  A
C1296      H1304   1.083       .  S
C1305      C1306   1.398       .  A
C1305      C1310   1.403       .  A
C1305      H1321   1.083       .  S
C1306      C1307   1.402       .  A
C1306      H1322   1.083       .  S
C1307      C1317   1.400       .  A
C1307      C1308   1.412       .  A
C1308      C1314   1.413       .  A
C1308      C1309   1.410       .  A
C1309      C1311   1.412       .  A
C1309      C1310   1.413       .  A
C1310      C1318   1.402       .  A
C1311      C1320   1.402       .  A
C1311      C1312   1.404       .  A
C1312      C1313   1.400       .  A
C1312      H1323   1.084       .  S
C1313      C1314   1.404       .  A
C1313      H1324   1.084       .  S
C1314      C1315   1.403       .  A
C1315      C1316   1.403       .  A
C1315      H1325   1.085       .  S
C1316      C1317   1.400       .  A
C1317      H1326   1.085       .  S
C1318      C1319   1.402       .  A
C1318      H1327   1.085       .  S
C1319      C1320   1.403       .  A
C1320      H1328   1.085       .  S
C1329      C1330   1.400       .  A
C1329      C1334   1.403       .  A
C1329      H1345   1.084       .  S
C1330      C1331   1.405       .  A
C1330      H1346   1.083       .  S
C1331      C1341   1.403       .  A
C1331      C1332   1.409       .  A
C1332      C1338   1.413       .  A
C1332      C1333   1.413       .  A
C1333      C1335   1.410       .  A
C1333      C1334   1.414       .  A
C1334      C1342   1.405       .  A
C1335      C1344   1.400       .  A
C1335      C1336   1.403       .  A
C1336      C1337   1.399       .  A
C1336      H1347   1.084       .  S
C1337      C1338   1.403       .  A
C1337      H1348   1.083       .  S
C1338      C1339   1.406       .  A
C1339      C1340   1.408       .  A
C1339      H1349   1.084       .  S
C1340      C1341   1.411       .  A
C1341      H1350   1.084       .  S
C1342      C1343   1.403       .  A
C1342      H1351   1.085       .  S
C1343      C1344   1.406       .  A
C1344      H1352   1.082       .  S
C1353      C1354   1.399       .  A
C1353      C1358   1.403       .  A
C1353      H1369   1.084       .  S
C1354      C1355   1.403       .  A
C1354      H1370   1.084       .  S
C1355      C1365   1.401       .  A
C1355      C1356   1.412       .  A
C1356      C1362   1.413       .  A
C1356      C1357   1.411       .  A
C1357      C1359   1.412       .  A
C1357      C1358   1.413       .  A
C1358      C1366   1.403       .  A
C1359      C1368   1.402       .  A
C1359      C1360   1.404       .  A
C1360      C1361   1.399       .  A
C1360      H1371   1.084       .  S
C1361      C1362   1.403       .  A
C1361      H1372   1.084       .  S
C1362      C1363   1.403       .  A
C1363      C1364   1.402       .  A
C1363      H1373   1.085       .  S
C1364      C1365   1.403       .  A
C1365      H1374   1.085       .  S
C1366      C1367   1.403       .  A
C1366      H1375   1.084       .  S
C1367      C1368   1.403       .  A
C1368      H1376   1.085       .  S
C1377      C1378   1.400       .  A
C1377      C1382   1.403       .  A
C1377      H1393   1.084       .  S
C1378      C1379   1.404       .  A
C1378      H1394   1.083       .  S
C1379      C1389   1.405       .  A
C1379      C1380   1.412       .  A
C1380      C1386   1.412       .  A
C1380      C1381   1.414       .  A
C1381      C1383   1.412       .  A
C1381      C1382   1.412       .  A
C1382      C1390   1.403       .  A
C1383      C1392   1.405       .  A
C1383      C1384   1.404       .  A
C1384      C1385   1.401       .  A
C1384      H1395   1.084       .  S
C1385      C1386   1.405       .  A
C1385      H1396   1.084       .  S
C1386      C1387   1.407       .  A
C1387      C1388   1.407       .  A
C1387      H1397   1.085       .  S
C1388      C1389   1.405       .  A
C1389      H1398   1.084       .  S
C1390      C1391   1.402       .  A
C1390      H1399   1.085       .  S
C1391      C1392   1.403       .  A
C1392      H1400   1.084       .  S
C1401      C1402   1.397       .  A
C1401      C1406   1.402       .  A
C1401      H1417   1.083       .  S
C1402      C1403   1.403       .  A
C1402      H1418   1.084       .  S
C1403      C1413   1.397       .  A
C1403      C1404   1.409       .  A
C1404      C1410   1.414       .  A
C1404      C1405   1.408       .  A
C1405      C1407   1.409       .  A
C1405      C1406   1.413       .  A
C1406      C1414   1.402       .  A
C1407      C1416   1.397       .  A
C1407      C1408   1.404       .  A
C1408      C1409   1.397       .  A
C1408      H1419   1.084       .  S
C1409      C1410   1.401       .  A
C1409      H1420   1.084       .  S
C1410      C1411   1.400       .  A
C1411      C1412   1.400       .  A
C1411      H1421   1.084       .  S
C1412      C1413   1.406       .  A
C1413      H1422   1.084       .  S
C1414      C1415   1.405       .  A
C1414      H1423   1.084       .  S
C1415      C1416   1.409       .  A
C1416      H1424   1.084       .  S
C1425      C1426   1.400       .  A
C1425      C1430   1.404       .  A
C1425      H1441   1.084       .  S
C1426      C1427   1.404       .  A
C1426      H1442   1.084       .  S
C1427      C1437   1.402       .  A
C1427      C1428   1.411       .  A
C1428      C1434   1.413       .  A
C1428      C1429   1.412       .  A
C1429      C1431   1.410       .  A
C1429      C1430   1.413       .  A
C1430      C1438   1.405       .  A
C1431      C1440   1.401       .  A
C1431      C1432   1.404       .  A
C1432      C1433   1.399       .  A
C1432      H1443   1.084       .  S
C1433      C1434   1.403       .  A
C1433      H1444   1.084       .  S
C1434      C1435   1.404       .  A
C1435      C1436   1.402       .  A
C1435      H1445   1.085       .  S
C1436      C1437   1.405       .  A
C1437      H1446   1.083       .  S
C1438      C1439   1.407       .  A
C1438      H1447   1.084       .  S
C1439      C1440   1.409       .  A
C1440      H1448   1.084       .  S
C1449      C1450   1.400       .  A
C1449      C1454   1.404       .  A
C1449      H1465   1.084       .  S
C1450      C1451   1.405       .  A
C1450      H1466   1.084       .  S
C1451      C1461   1.405       .  A
C1451      C1452   1.413       .  A
C1452      C1458   1.411       .  A
C1452      C1453   1.409       .  A
C1453      C1455   1.414       .  A
C1453      C1454   1.411       .  A
C1454      C1462   1.401       .  A
C1455      C1464   1.401       .  A
C1455      C1456   1.402       .  A
C1456      C1457   1.396       .  A
C1456      H1467   1.083       .  S
C1457      C1458   1.401       .  A
C1457      H1468   1.084       .  S
C1458      C1459   1.396       .  A
C1459      C1460   1.400       .  A
C1459      H1469   1.085       .  S
C1460      C1461   1.405       .  A
C1461      H1470   1.083       .  S
C1462      C1463   1.403       .  A
C1462      H1471   1.084       .  S
C1463      C1464   1.401       .  A
C1464      H1472   1.085       .  S
C1473      C1474   1.397       .  A
C1473      C1478   1.403       .  A
C1473      H1489   1.084       .  S
C1474      C1475   1.403       .  A
C1474      H1490   1.084       .  S
C1475      C1485   1.396       .  A
C1475      C1476   1.409       .  A
C1476      C1477   1.409       .  A
C1477      C1478   1.412       .  A
C1478      C1486   1.401       .  A
C1479      C1488   1.404       .  A
C1479      C1480   1.404       .  A
C1480      C1481   1.401       .  A
C1480      H1491   1.084       .  S
C1481      C1482   1.404       .  A
C1481      H1492   1.083       .  S
C1482      C1483   1.409       .  A
C1483      H1493   1.084       .  S
C1484      C1485   1.406       .  A
C1485      H1494   1.084       .  S
C1486      C1487   1.407       .  A
C1486      H1495   1.084       .  S
C1488      H1496   1.084       .  S
C1497      C1498   1.398       .  A
C1497      C1502   1.402       .  A
C1497      H1513   1.081       .  S
C1498      C1499   1.403       .  A
C1498      H1514   1.084       .  S
C1499      C1509   1.401       .  A
C1499      C1500   1.411       .  A
C1500      C1506   1.413       .  A
C1500      C1501   1.412       .  A
C1501      C1503   1.410       .  A
C1501      C1502   1.412       .  A
C1502      C1510   1.403       .  A
C1503      C1512   1.402       .  A
C1503      C1504   1.404       .  A
C1504      C1505   1.400       .  A
C1504      H1515   1.084       .  S
C1505      C1506   1.404       .  A
C1505      H1516   1.083       .  S
C1506      C1507   1.407       .  A
C1507      C1508   1.405       .  A
C1507      H1517   1.084       .  S
C1508      C1509   1.405       .  A
C1509      H1518   1.084       .  S
C1510      C1511   1.405       .  A
C1510      H1519   1.084       .  S
C1511      C1512   1.409       .  A
C1512      H1520   1.084       .  S
C1521      C1522   1.400       .  A
C1521      C1526   1.404       .  A
C1521      H1537   1.084       .  S
C1522      C1523   1.404       .  A
C1522      H1538   1.084       .  S
C1523      C1533   1.404       .  A
C1523      C1524   1.413       .  A
C1524      C1530   1.412       .  A
C1524      C1525   1.412       .  A
C1525      C1527   1.413       .  A
C1525      C1526   1.412       .  A
C1526      C1534   1.404       .  A
C1527      C1536   1.404       .  A
C1527      C1528   1.403       .  A
C1528      C1529   1.399       .  A
C1528      H1539   1.083       .  S
C1529      C1530   1.403       .  A
C1529      H1540   1.084       .  S
C1530      C1531   1.402       .  A
C1531      C1532   1.402       .  A
C1531      H1541   1.085       .  S
C1532      C1533   1.403       .  A
C1533      H1542   1.085       .  S
C1534      C1535   1.405       .  A
C1534      H1543   1.085       .  S
C1535      C1536   1.403       .  A
C1536      H1544   1.084       .  S
C1545      C1546   1.400       .  A
C1545      C1550   1.405       .  A
C1545      H1561   1.084       .  S
C1546      C1547   1.403       .  A
C1546      H1562   1.084       .  S
C1547      C1557   1.405       .  A
C1547      C1548   1.414       .  A
C1548      C1554   1.410       .  A
C1548      C1549   1.411       .  A
C1549      C1551   1.413       .  A
C1549      C1550   1.409       .  A
C1550      C1558   1.402       .  A
C1551      C1560   1.404       .  A
C1551      C1552   1.403       .  A
C1552      C1553   1.398       .  A
C1552      H1563   1.083       .  S
C1553      C1554   1.403       .  A
C1553      H1564   1.084       .  S
C1554      C1555   1.399       .  A
C1555      C1556   1.404       .  A
C1555      H1565   1.082       .  S
C1556      C1557   1.403       .  A
C1557      H1566   1.084       .  S
C1558      C1559   1.411       .  A
C1558      H1567   1.084       .  S
C1559      C1560   1.408       .  A
C1560      H1568   1.084       .  S
C1569      C1570   1.398       .  A
C1569      C1574   1.403       .  A
C1569      H1585   1.084       .  S
C1570      C1571   1.403       .  A
C1570      H1586   1.084       .  S
C1571      C1581   1.402       .  A
C1571      C1572   1.413       .  A
C1572      C1578   1.412       .  A
C1572      C1573   1.411       .  A
C1573      C1575   1.413       .  A
C1573      C1574   1.412       .  A
C1574      C1582   1.401       .  A
C1575      C1584   1.404       .  A
C1575      C1576   1.404       .  A
C1576      C1577   1.400       .  A
C1576      H1587   1.084       .  S
C1577      C1578   1.404       .  A
C1577      H1588   1.084       .  S
C1578      C1579   1.403       .  A
C1579      C1580   1.404       .  A
C1579      H1589   1.085       .  S
C1580      C1581   1.402       .  A
C1581      H1590   1.085       .  S
C1582      C1583   1.401       .  A
C1582      H1591   1.085       .  S
C1583      C1584   1.403       .  A
C1584      H1592   1.085       .  S
C1593      C1594   1.401       .  A
C1593      C1598   1.404       .  A
C1593      H1609   1.083       .  S
C1594      C1595   1.404       .  A
C1594      H1610   1.083       .  S
C1595      C1605   1.404       .  A
C1596      C1602   1.412       .  A
C1596      C1597   1.412       .  A
C1597      C1599   1.410       .  A
C1598      C1606   1.409       .  A
C1599      C1608   1.399       .  A
C1599      C1600   1.402       .  A
C1600      C1601   1.397       .  A
C1600      H1611   1.081       .  S
C1601      C1602   1.402       .  A
C1601      H1612   1.084       .  S
C1602      C1603   1.401       .  A
C1603      C1604   1.404       .  A
C1603      H1613   1.084       .  S
C1605      H1614   1.084       .  S
C1606      H1615   1.084       .  S
C1607      C1608   1.406       .  A
C1608      H1616   1.085       .  S
C1617      C1618   1.401       .  A
C1617      C1622   1.404       .  A
C1617      H1633   1.083       .  S
C1618      C1619   1.404       .  A
C1618      H1634   1.084       .  S
C1619      C1629   1.403       .  A
C1619      C1620   1.411       .  A
C1620      C1626   1.414       .  A
C1620      C1621   1.412       .  A
C1621      C1623   1.411       .  A
C1621      C1622   1.414       .  A
C1622      C1630   1.408       .  A
C1623      C1632   1.399       .  A
C1623      C1624   1.403       .  A
C1624      C1625   1.397       .  A
C1624      H1635   1.084       .  S
C1625      C1626   1.402       .  A
C1625      H1636   1.084       .  S
C1626      C1627   1.402       .  A
C1627      C1628   1.401       .  A
C1627      H1637   1.085       .  S
C1628      C1629   1.407       .  A
C1629      H1638   1.084       .  S
C1630      C1631   1.404       .  A
C1630      H1639   1.084       .  S
C1631      C1632   1.401       .  A
C1632      H1640   1.085       .  S
C1641      C1642   1.398       .  A
C1641      C1646   1.402       .  A
C1641      H1657   1.082       .  S
C1642      C1643   1.403       .  A
C1642      H1658   1.084       .  S
C1643      C1653   1.400       .  A
C1643      C1644   1.411       .  A
C1644      C1650   1.412       .  A
C1644      C1645   1.411       .  A
C1645      C1647   1.410       .  A
C1645      C1646   1.411       .  A
C1646      C1654   1.402       .  A
C1647      C1656   1.403       .  A
C1647      C1648   1.405       .  A
C1648      C1649   1.400       .  A
C1648      H1659   1.084       .  S
C1649      C1650   1.403       .  A
C1649      H1660   1.084       .  S
C1650      C1651   1.404       .  A
C1651      C1652   1.405       .  A
C1651      H1661   1.084       .  S
C1652      C1653   1.405       .  A
C1653      H1662   1.081       .  S
C1654      C1655   1.406       .  A
C1654      H1663   1.084       .  S
C1655      C1656   1.410       .  A
C1656      H1664   1.084       .  S
C1665      C1666   1.402       .  A
C1665      C1670   1.406       .  A
C1665      H1681   1.083       .  S
C1666      C1667   1.404       .  A
C1666      H1682   1.084       .  S
C1667      C1677   1.407       .  A
C1668      C1674   1.410       .  A
C1668      C1669   1.414       .  A
C1669      C1671   1.413       .  A
C1670      C1678   1.409       .  A
C1671      C1680   1.404       .  A
C1671      C1672   1.402       .  A
C1672      C1673   1.397       .  A
C1672      H1683   1.084       .  S
C1673      C1674   1.402       .  A
C1673      H1684   1.080       .  S
C1674      C1675   1.401       .  A
C1675      C1676   1.405       .  A
C1675      H1685   1.085       .  S
C1677      H1686   1.084       .  S
C1678      H1687   1.084       .  S
C1679      C1680   1.404       .  A
C1680      H1688   1.084       .  S
C1689      C1690   1.399       .  A
C1689      C1694   1.404       .  A
C1689      H1705   1.084       .  S
C1690      C1691   1.403       .  A
C1690      H1706   1.084       .  S
C1691      C1701   1.405       .  A
C1691      C1692   1.414       .  A
C1692      C1698   1.410       .  A
C1692      C1693   1.411       .  A
C1693      C1695   1.413       .  A
C1693      C1694   1.410       .  A
C1694      C1702   1.401       .  A
C1695      C1704   1.403       .  A
C1695      C1696   1.403       .  A
C1696      C1697   1.398       .  A
C1696      H1707   1.084       .  S
C1697      C1698   1.403       .  A
C1697      H1708   1.084       .  S
C1698      C1699   1.399       .  A
C1699      C1700   1.405       .  A
C1699      H1709   1.084       .  S
C1700      C1701   1.403       .  A
C1701      H1710   1.083       .  S
C1702      C1703   1.409       .  A
C1702      H1711   1.084       .  S
C1703      C1704   1.408       .  A
C1704      H1712   1.084       .  S
C1713      C1714   1.399       .  A
C1713      C1718   1.403       .  A
C1713      H1729   1.084       .  S
C1714      C1715   1.404       .  A
C1714      H1730   1.083       .  S
C1715      C1725   1.403       .  A
C1715      C1716   1.412       .  A
C1716      C1722   1.412       .  A
C1716      C1717   1.410       .  A
C1717      C1719   1.412       .  A
C1717      C1718   1.413       .  A
C1718      C1726   1.402       .  A
C1719      C1728   1.400       .  A
C1719      C1720   1.403       .  A
C1720      C1721   1.399       .  A
C1720      H1731   1.084       .  S
C1721      C1722   1.404       .  A
C1721      H1732   1.084       .  S
C1722      C1723   1.403       .  A
C1723      C1724   1.403       .  A
C1723      H1733   1.081       .  S
C1724      C1725   1.406       .  A
C1725      H1734   1.084       .  S
C1726      C1727   1.401       .  A
C1726      H1735   1.084       .  S
C1727      C1728   1.401       .  A
C1728      H1736   1.084       .  S
C1737      C1738   1.398       .  A
C1737      C1742   1.404       .  A
C1737      H1753   1.084       .  S
C1738      C1739   1.403       .  A
C1738      H1754   1.084       .  S
C1739      C1749   1.402       .  A
C1739      C1740   1.412       .  A
C1740      C1741   1.412       .  A
C1741      C1742   1.409       .  A
C1742      C1750   1.398       .  A
C1743      C1752   1.406       .  A
C1743      C1744   1.403       .  A
C1744      C1745   1.399       .  A
C1744      H1755   1.083       .  S
C1745      C1746   1.404       .  A
C1745      H1756   1.083       .  S
C1746      C1747   1.402       .  A
C1747      H1757   1.084       .  S
C1748      C1749   1.407       .  A
C1749      H1758   1.084       .  S
C1750      C1751   1.408       .  A
C1750      H1759   1.082       .  S
C1752      H1760   1.084       .  S
