geometry optimzed in LAMMPS
_audit_creation_date              2020-11-30 
_audit_creation_method            'lammps2cif' 
_symmetry_space_group_name_H-M    'P1' 
_symmetry_Int_Tables_number       1 
_symmetry_cell_setting            triclinic 
loop_ 
_symmetry_equiv_pos_as_xyz 
  x,y,z 
_cell_length_a                    37.62784826916178 
_cell_length_b                    38.93638293345895 
_cell_length_c                    50.68876700912421 
_cell_angle_alpha                 89.81607794823276 
_cell_angle_beta                  88.98788185267901 
_cell_angle_gamma                 89.65202995993936 
loop_ 
_atom_site_label 
_atom_site_type_symbol 
_atom_site_fract_x 
_atom_site_fract_y 
_atom_site_fract_z 
_atom_site_charge 
C1          C  0.39118211  0.49536225  0.36188792     0.03010
C2          C  0.40939186  0.48711632  0.38453491    -0.13140
C3          C  0.41002678  0.00973638  0.40571329     0.00510
C4          C  0.38565433  0.03761063  0.40656669    -0.11670
C5          C  0.36377134  0.04483986  0.38458733     0.03000
C6          C  0.36990337  0.02486686  0.36147232    -0.11090
H7          H  0.42602293  0.46427535  0.38469040     0.08600
H8          H  0.38456588  0.05349414  0.42398607     0.06120
H9          H  0.35833900  0.03133489  0.34280517     0.05970
O10         O  0.38695348  0.40432845  0.20762820    -0.74550
O11         O  0.38512079  0.33327812  0.26110731    -0.74580
O12         O  0.38593274  0.40195646  0.26116344    -0.74630
O13         O  0.38312233  0.33527313  0.20708306    -0.74680
O14         O  0.44239343  0.33400688  0.20433777    -0.74610
O15         O  0.44525490  0.39952454  0.26154744    -0.74590
O16         O  0.44439836  0.33094336  0.25829892    -0.74570
O17         O  0.44604746  0.40272965  0.20839514    -0.74630
Ni18       Ni  0.38311811  0.36869222  0.23423445     1.25410
Ni19       Ni  0.44662567  0.36658855  0.23305395     1.25360
C20         C  0.41737971  0.41497512  0.19913486     0.87630
C21         C  0.41518791  0.32203629  0.26929975     0.87560
C22         C  0.41547129  0.41090830  0.27083428     0.87590
C23         C  0.41180609  0.32480973  0.19595922     0.87760
C24         C  0.43953994  0.24424301  0.36368208     0.03010
C25         C  0.45873685  0.21352683  0.36324510    -0.13140
C26         C  0.45661764  0.19021396  0.38459778     0.00510
C27         C  0.43414617  0.19859547  0.40615811    -0.11670
C28         C  0.41734863  0.23111716  0.40788448     0.03000
C29         C  0.42142890  0.25404215  0.38662388    -0.11090
H30         H  0.47498203  0.20827055  0.34591796     0.08600
H31         H  0.42864240  0.17915265  0.42088530     0.06120
H32         H  0.40870579  0.27901266  0.38696708     0.05970
C33         C  0.38409171  0.24577905  0.10256323     0.03010
C34         C  0.40740032  0.25195410  0.08151310    -0.13140
C35         C  0.40882646  0.23048088  0.05944654     0.00510
C36         C  0.38520709  0.20241040  0.05821179    -0.11670
C37         C  0.35958144  0.19696031  0.07863306     0.03000
C38         C  0.35846225  0.22027645  0.10006265    -0.11090
H39         H  0.42643379  0.27260609  0.08307381     0.08600
H40         H  0.38806748  0.18410082  0.04227959     0.06120
H41         H  0.33841951  0.21829282  0.11551734     0.05970
C42         C  0.43228672  0.49448860  0.10388407     0.03010
C43         C  0.40903210  0.48709572  0.08378465    -0.13140
C44         C  0.40492167  0.00964955  0.06251542     0.00510
C45         C  0.42756780  0.03854814  0.06025548    -0.11670
C46         C  0.45341764  0.04485069  0.07967150     0.03000
C47         C  0.45546533  0.02200012  0.10121669    -0.11090
H48         H  0.39283046  0.46425663  0.08546890     0.08600
H49         H  0.42418938  0.05646516  0.04410337     0.06120
H50         H  0.47468345  0.02550893  0.11655280     0.05970
C51         C  0.26525890  0.48246459  0.98089821     0.00440
C52         C  0.28707415  0.00342354  0.99497222     0.00440
C53         C  0.15695654  0.97337272  0.85175082     0.03010
C54         C  0.13279935  0.44644172  0.85390369    -0.13140
C55         C  0.12474132  0.43098963  0.87874603     0.00510
C56         C  0.14650434  0.43988143  0.90028336    -0.11670
C57         C  0.17350295  0.46493743  0.89706439     0.03000
C58         C  0.17643391  0.98281370  0.87336107    -0.11090
H59         H  0.11946768  0.43920692  0.83610387     0.08600
H60         H  0.14218651  0.42829606  0.91948490     0.06120
H61         H  0.19379162  0.00490260  0.87174452     0.05970
C62         C  0.19032766  0.24660716  0.86305299     0.03010
C63         C  0.17257589  0.23554061  0.88568312    -0.13140
C64         C  0.16821308  0.25741088  0.90736321     0.00510
C65         C  0.18489490  0.28977918  0.90660412    -0.11670
C66         C  0.20827781  0.29876978  0.88571728     0.03000
C67         C  0.20990978  0.27686678  0.86348278    -0.11090
H68         H  0.16030073  0.21047647  0.88547095     0.08600
H69         H  0.17891879  0.30832976  0.92184435     0.06120
H70         H  0.22627495  0.28238310  0.84632528     0.05970
O71         O  0.13558126  0.15351689  0.76472559    -0.74550
O72         O  0.13249023  0.08690529  0.70833731    -0.74580
O73         O  0.13571797  0.08467982  0.76159591    -0.74630
O74         O  0.12932188  0.15573209  0.71130604    -0.74680
O75         O  0.18811195  0.15620746  0.70556270    -0.74610
O76         O  0.19497676  0.08590109  0.75951184    -0.74590
O77         O  0.19153653  0.08769827  0.70658676    -0.74570
O78         O  0.19455660  0.15506265  0.75935324    -0.74630
Ni79       Ni  0.13113882  0.12028107  0.73664005     1.25410
Ni80       Ni  0.19441795  0.12144846  0.73266845     1.25360
C81         C  0.16632567  0.16394928  0.77181265     0.87630
C82         C  0.16216229  0.07657868  0.69807162     0.87560
C83         C  0.16581670  0.07406365  0.76941992     0.87590
C84         C  0.15682105  0.16573406  0.69857749     0.87760
C85         C  0.17697958  0.98929220  0.60681380     0.03010
C86         C  0.15462689  0.99619018  0.58599740    -0.13140
C87         C  0.15329319  0.47408138  0.56453451     0.00510
C88         C  0.17655071  0.44559878  0.56298162    -0.11670
C89         C  0.20084792  0.43903937  0.58338309     0.03000
C90         C  0.20058464  0.46152663  0.60523051    -0.11090
H91         H  0.13722684  0.01848942  0.58690799     0.08600
H92         H  0.17478248  0.42832223  0.54637785     0.06120
H93         H  0.21856031  0.45795315  0.62136309     0.05970
C94         C  0.13499827  0.24344148  0.60329543     0.03010
C95         C  0.15394221  0.23275605  0.58118966    -0.13140
C96         C  0.15472315  0.25283348  0.55826126     0.00510
C97         C  0.13115932  0.28133737  0.55641942    -0.11670
C98         C  0.10773837  0.29011680  0.57785316     0.03000
C99         C  0.11198108  0.27141309  0.60169862    -0.11090
H100        H  0.17104253  0.21034181  0.58281532     0.08600
H101        H  0.13282878  0.29734670  0.53904329     0.06120
H102        H  0.09879341  0.27832017  0.61990959     0.05970
C103        C  0.05169486  0.25313593  0.97717382     0.00440
C104        C  0.03189343  0.23269043  0.99344189     0.00440
O105        O  0.44274741  0.35069958  0.76065964    -0.74550
O106        O  0.37311973  0.34327401  0.70625843    -0.74580
O107        O  0.44492946  0.34785561  0.70649506    -0.74630
O108        O  0.37155984  0.34609180  0.76008166    -0.74680
O109        O  0.36756248  0.40311424  0.75864270    -0.74610
O110        O  0.44014306  0.40491045  0.70428710    -0.74590
O111        O  0.36875668  0.40025417  0.70512275    -0.74570
O112        O  0.43840661  0.40783905  0.75879126    -0.74630
Ni113      Ni  0.40831355  0.34493378  0.73339189     1.25410
Ni114      Ni  0.40369919  0.40602611  0.73157543     1.25360
C115        C  0.45047673  0.38047322  0.76956588     0.87630
C116        C  0.35956296  0.37072882  0.69656942     0.87560
C117        C  0.45360509  0.37657019  0.69583266     0.87590
C118        C  0.35831028  0.37434729  0.76886885     0.87760
C119        C  0.27327660  0.36808516  0.86489792     0.03010
C120        C  0.28149099  0.38345660  0.88894247    -0.13140
C121        C  0.26476337  0.37264409  0.91271370     0.00510
C122        C  0.24059761  0.34498535  0.91156811    -0.11670
C123        C  0.23106826  0.33025036  0.88715450     0.03000
C124        C  0.24625472  0.34394976  0.86397439    -0.11090
H125        H  0.30075651  0.40389473  0.88879533     0.08600
H126        H  0.22998272  0.33460908  0.92983868     0.06120
H127        H  0.23913630  0.33462316  0.84475641     0.05970
C128        C  0.03585348  0.39006677  0.86297662     0.03010
C129        C  0.06535651  0.41131083  0.86267603    -0.13140
C130        C  0.09203170  0.40859332  0.88180806     0.00510
C131        C  0.08647885  0.38462572  0.90281130    -0.11670
C132        C  0.05472147  0.36482032  0.90456452     0.03000
C133        C  0.02898767  0.36953604  0.88501032    -0.11090
H134        H  0.06685388  0.42972961  0.84676894     0.08600
H135        H  0.10683204  0.38072484  0.91733111     0.06120
H136        H  0.00400399  0.35598075  0.88617325     0.05970
C137        C  0.26718437  0.37200892  0.60633627     0.03010
C138        C  0.23928625  0.39564485  0.60641812    -0.13140
C139        C  0.22581474  0.40879344  0.58268100     0.00510
C140        C  0.23833935  0.39419567  0.55871924    -0.11670
C141        C  0.26198684  0.36579278  0.55866955     0.03000
C142        C  0.27687811  0.35557634  0.58288832    -0.11090
H143        H  0.23035724  0.40530457  0.62536702     0.08600
H144        H  0.23041838  0.40535130  0.54018873     0.06120
H145        H  0.29679918  0.33545735  0.58371106     0.05970
C146        C  0.04249209  0.35992229  0.60178643     0.03010
C147        C  0.06065945  0.32865095  0.59944252    -0.13140
C148        C  0.08166503  0.32019364  0.57690414     0.00510
C149        C  0.07663772  0.34063781  0.55400319    -0.11670
C150        C  0.05476342  0.37045199  0.55478625     0.03000
C151        C  0.04096545  0.38125122  0.57949012    -0.11090
H152        H  0.05715866  0.31098212  0.61555707     0.08600
H153        H  0.08866501  0.33305418  0.53544970     0.06120
H154        H  0.02782224  0.40594819  0.58121197     0.05970
C155        C  0.01819866  0.11212241  0.10306743     0.03010
C156        C  0.99018838  0.08881024  0.10274628    -0.13140
C157        C  0.97752161  0.07543985  0.07889344     0.00510
C158        C  0.99044975  0.08971043  0.05499410    -0.11670
C159        C  0.01445559  0.11755753  0.05505136     0.03000
C160        C  0.02905373  0.12751223  0.07937106    -0.11090
H161        H  0.98016389  0.07956237  0.12157136     0.08600
H162        H  0.48254917  0.07863235  0.03650062     0.06120
H163        H  0.04954647  0.14680646  0.08002936     0.05970
C164        C  0.30134565  0.12591517  0.10665985     0.03010
C165        C  0.32554799  0.15260088  0.10447592    -0.13140
C166        C  0.33657588  0.16545142  0.07965912     0.00510
C167        C  0.32421811  0.14878550  0.05671708    -0.11670
C168        C  0.30354772  0.11834184  0.05866889     0.03000
C169        C  0.29312145  0.10717809  0.08430337    -0.11090
H170        H  0.33380860  0.16435856  0.12261396     0.08600
H171        H  0.32966010  0.16038548  0.03775639     0.06120
H172        H  0.27712287  0.08451501  0.08736539     0.05970
O173        O  0.19411285  0.08547638  0.20593382    -0.74550
O174        O  0.11684842  0.08568879  0.25706502    -0.74580
O175        O  0.12238586  0.08608100  0.20345471    -0.74630
O176        O  0.18810720  0.08427850  0.25992924    -0.74680
O177        O  0.18793303  0.14157625  0.26078691    -0.74610
O178        O  0.12267405  0.14305417  0.20277140    -0.74590
O179        O  0.11675908  0.14276938  0.25620317    -0.74570
O180        O  0.19423869  0.14260050  0.20697307    -0.74630
Ni181      Ni  0.15541581  0.08334870  0.23152417     1.25410
Ni182      Ni  0.15550354  0.14452199  0.23166114     1.25360
C183        C  0.20635862  0.11430574  0.19756693     0.87630
C184        C  0.10486280  0.11458511  0.26566033     0.87560
C185        C  0.11163221  0.11442360  0.19353393     0.87590
C186        C  0.19770371  0.11250892  0.27035373     0.87760
C187        C  0.01031998  0.11576984  0.35701333     0.03010
C188        C  0.02067563  0.09841194  0.37983843    -0.13140
C189        C  0.01171056  0.11124257  0.40521877     0.00510
C190        C  0.99016038  0.14120527  0.40674525    -0.11670
C191        C  0.97684298  0.15697338  0.38368636     0.03000
C192        C  0.98592309  0.14261711  0.35912105    -0.11090
H193        H  0.03668320  0.07553081  0.37742062     0.08600
H194        H  0.48465128  0.15291031  0.42569662     0.06120
H195        H  0.97655919  0.15388073  0.34098315     0.05970
C196        C  0.28236068  0.09716283  0.36379143     0.03010
C197        C  0.27617449  0.11808270  0.38560919    -0.13140
C198        C  0.30090249  0.12011292  0.40596819     0.00510
C199        C  0.33016401  0.09675903  0.40567808    -0.11670
C200        C  0.33442898  0.07191454  0.38520063     0.03000
C201        C  0.30941427  0.07270677  0.36467407    -0.11090
H202        H  0.25259046  0.13409671  0.38601733     0.08600
H203        H  0.34944631  0.09851896  0.42112354     0.06120
H204        H  0.30978957  0.05434808  0.34885249     0.05970
C205        C  0.04806452  0.48259502  0.48738899     0.00440
C206        C  0.02358396  0.50539173  0.47746815     0.00440
C207        C  0.30009103  0.23281391  0.47776359     0.00440
C208        C  0.27947392  0.25256009  0.49409083     0.00440
C209        C  0.30411507  0.14149079  0.45321728    -0.09280
C210        C  0.29590452  0.14765015  0.42654415     0.06920
C211        C  0.28198061  0.18048955  0.41994297    -0.03040
C212        C  0.27464427  0.20461565  0.43958807    -0.07490
C213        C  0.28745535  0.20043334  0.46514064     0.06030
C214        C  0.30111211  0.16787650  0.47218910    -0.02520
Br215      Br  0.31701153  0.15881001  0.50720174    -0.02210
H216        H  0.31419322  0.11660363  0.45917654     0.09950
H217        H  0.26398695  0.22921575  0.43373465     0.07960
Br218      Br  0.27981076  0.19806138  0.38438828    -0.02640
C219        C  0.00320996  0.09278544  0.45309851    -0.09280
C220        C  0.02399872  0.09260208  0.42964084     0.06920
C221        C  0.05478062  0.07151148  0.42949072    -0.03040
C222        C  0.05742905  0.04461668  0.44769341    -0.07490
C223        C  0.03357731  0.04138817  0.46914618     0.06030
C224        C  0.00973293  0.06901885  0.47344249    -0.02520
Br225      Br  0.48721509  0.07637266  0.50703555    -0.02210
H226        H  0.48126869  0.11058080  0.45563426     0.09950
H227        H  0.07524568  0.02395519  0.44277102     0.07960
Br228      Br  0.09502501  0.07862418  0.40621228    -0.02640
C229        C  0.05287898  0.14341867  0.32664905    -0.09280
C230        C  0.03267717  0.11424786  0.33269823     0.06920
C231        C  0.03473928  0.08575010  0.31578850    -0.03040
C232        C  0.05772389  0.08648498  0.29365242    -0.07490
C233        C  0.07840184  0.11567554  0.28775397     0.06030
C234        C  0.07530252  0.14463525  0.30455719    -0.02520
Br235      Br  0.10256074  0.18610800  0.30059099    -0.02210
H236        H  0.05160211  0.16548746  0.33963672     0.09950
H237        H  0.05939739  0.06413725  0.28101346     0.07960
Br238      Br  0.00560667  0.04626689  0.32132590    -0.02640
C239        C  0.25625291  0.11257200  0.29231693    -0.09280
C240        C  0.21916389  0.11092700  0.29437456     0.06920
C241        C  0.20308539  0.10485985  0.31927489    -0.03040
C242        C  0.22395224  0.10049078  0.34157158    -0.07490
C243        C  0.26107960  0.10158030  0.33959540     0.06030
C244        C  0.27728450  0.10802967  0.31463850    -0.02520
Br245      Br  0.32782223  0.11237357  0.30990735    -0.02210
H246        H  0.26890108  0.11704192  0.27325357     0.09950
H247        H  0.21111104  0.09569903  0.36051881     0.07960
Br248      Br  0.15275162  0.10169140  0.32410856    -0.02640
C249        C  0.27954415  0.09266212  0.14637497    -0.09280
C250        C  0.27903707  0.12266309  0.13092516     0.06920
C251        C  0.25528840  0.14937954  0.13786594    -0.03040
C252        C  0.23295896  0.14603746  0.15989903    -0.07490
C253        C  0.23296341  0.11612237  0.17549904     0.06030
C254        C  0.25686167  0.08922956  0.16862204    -0.02520
Br255      Br  0.26082632  0.04794934  0.18913035    -0.02210
H256        H  0.29759692  0.07191338  0.14111579     0.09950
H257        H  0.21451876  0.16680464  0.16428559     0.07960
Br258      Br  0.25005106  0.19022714  0.11679608    -0.02640
C259        C  0.05225847  0.08339705  0.13811513    -0.09280
C260        C  0.04028709  0.11435830  0.12710985     0.06920
C261        C  0.05104858  0.14549222  0.13851866    -0.03040
C262        C  0.07397016  0.14501857  0.16016376    -0.07490
C263        C  0.08646412  0.11383193  0.17100385     0.06030
C264        C  0.07472338  0.08265887  0.15968827    -0.02520
Br265      Br  0.08776751  0.03737770  0.17162240    -0.02210
H266        H  0.04451050  0.05920956  0.12945046     0.09950
H267        H  0.08197163  0.16926374  0.16853684     0.07960
Br268      Br  0.03385821  0.18908670  0.12621330    -0.02640
C269        C  0.01205677  0.43644105  0.50929853    -0.09280
C270        C  0.04050752  0.44490930  0.49234655     0.06920
C271        C  0.06852941  0.42063053  0.49049416    -0.03040
C272        C  0.07300917  0.39577800  0.51036220    -0.07490
C273        C  0.04718681  0.39161395  0.53053653     0.06030
C274        C  0.01449170  0.40937311  0.52745376    -0.02520
Br275      Br  0.47170623  0.39769976  0.54662179    -0.02210
H276        H  0.48895852  0.45249985  0.51021795     0.09950
H277        H  0.09711324  0.38051005  0.51015907     0.07960
Br278      Br  0.09970418  0.41906447  0.46037663    -0.02640
C279        C  0.30593557  0.33118375  0.53205463    -0.09280
C280        C  0.27182874  0.34625846  0.53406528     0.06920
C281        C  0.24683915  0.33728507  0.51472176    -0.03040
C282        C  0.25525732  0.31141566  0.49654475    -0.07490
C283        C  0.28528620  0.29012252  0.49974964     0.06030
C284        C  0.31236178  0.30229982  0.51622958    -0.02520
Br285      Br  0.35685145  0.27944994  0.52140043    -0.02210
H286        H  0.32674604  0.33941830  0.54504673     0.09950
H287        H  0.23504151  0.30399403  0.48278479     0.07960
Br288      Br  0.19825972  0.35293813  0.51454519    -0.02640
C289        C  0.48763417  0.38205525  0.62500486    -0.09280
C290        C  0.02213526  0.36829646  0.62676422     0.06920
C291        C  0.03513974  0.36062674  0.65228623    -0.03040
C292        C  0.51272719  0.36385033  0.67464343    -0.07490
C293        C  0.47795788  0.37652771  0.67249718     0.06030
C294        C  0.46597590  0.38668753  0.64746156    -0.02520
Br295      Br  0.41929664  0.40492583  0.64234976    -0.02210
H296        H  0.47675027  0.38817290  0.60594288     0.09950
H297        H  0.52260679  0.35668712  0.69385499     0.07960
Br298      Br  0.08366952  0.34763791  0.65840829    -0.02640
C299        C  0.50798046  0.37347939  0.79239607    -0.09280
C300        C  0.47216920  0.38328712  0.79341551     0.06920
C301        C  0.45721245  0.39496951  0.81755167    -0.03040
C302        C  0.47801424  0.39657836  0.84013326    -0.07490
C303        C  0.01401613  0.38744911  0.83901174     0.06030
C304        C  0.02903019  0.37584119  0.81481783    -0.02520
Br305      Br  0.07789744  0.36186401  0.81139998    -0.02210
H306        H  0.01968469  0.36424180  0.77404628     0.09950
H307        H  0.46617415  0.40540835  0.85855446     0.07960
Br308      Br  0.40834326  0.40829826  0.82112379    -0.02640
C309        C  0.33812624  0.34567341  0.81008325    -0.09280
C310        C  0.33453809  0.37352860  0.79261464     0.06920
C311        C  0.31118209  0.40079215  0.79977357    -0.03040
C312        C  0.29233352  0.39964598  0.82395509    -0.07490
C313        C  0.29639368  0.37178821  0.84121844     0.06030
C314        C  0.31956993  0.34473505  0.83410791    -0.02520
Br315      Br  0.32694927  0.30579441  0.85679909    -0.02210
H316        H  0.35627418  0.32476674  0.80543349     0.09950
H317        H  0.27392918  0.42013791  0.82905901     0.07960
Br318      Br  0.30242861  0.43935934  0.77706385    -0.02640
C319        C  0.33085063  0.39914038  0.65876239    -0.09280
C320        C  0.33438664  0.36937143  0.67425753     0.06920
C321        C  0.31499578  0.33976010  0.66718217    -0.03040
C322        C  0.29321493  0.34057281  0.64489413    -0.07490
C323        C  0.29047392  0.37042015  0.62948421     0.06030
C324        C  0.30997644  0.39965572  0.63641954    -0.02520
Br325      Br  0.31088817  0.44064453  0.61514287    -0.02210
H326        H  0.34537253  0.42218115  0.66347974     0.09950
H327        H  0.27813235  0.31803504  0.63973263     0.07960
Br328      Br  0.31539674  0.29816028  0.68757188    -0.02640
C329        C  0.00829848  0.17385869  0.99374688    -0.09280
C330        C  0.03813835  0.19475669  0.99767008     0.06920
C331        C  0.06526500  0.18137106  0.01377061    -0.03040
C332        C  0.05887705  0.15173483  0.02880754    -0.07490
C333        C  0.02471340  0.13715200  0.03053092     0.06030
C334        C  0.99986716  0.14723084  0.01129293    -0.02520
Br335      Br  0.45142423  0.13212252  0.01065109    -0.02210
H336        H  0.98811019  0.18220441  0.98015225     0.09950
H337        H  0.07965940  0.14259477  0.04161065     0.07960
Br338      Br  0.10980431  0.20328932  0.01944827    -0.02640
C339        C  0.05834622  0.34376214  0.95201356    -0.09280
C340        C  0.04830847  0.33801990  0.92569752     0.06920
C341        C  0.03138711  0.30641097  0.92007061    -0.03040
C342        C  0.02389245  0.28284625  0.94024580    -0.07490
C343        C  0.03867855  0.28616689  0.96524945     0.06030
C344        C  0.05442454  0.31791020  0.97146013    -0.02520
Br345      Br  0.07173706  0.32646023  0.00610708    -0.02210
H346        H  0.07047823  0.36786413  0.95730085     0.09950
H347        H  0.01137665  0.25897327  0.93508066     0.07960
Br348      Br  0.02482985  0.28929283  0.88486471    -0.02640
C349        C  0.21880970  0.24121674  0.55101477    -0.09280
C350        C  0.18539074  0.24689834  0.53970162     0.06920
C351        C  0.18294699  0.24561921  0.51194572    -0.03040
C352        C  0.21404906  0.24147108  0.49635345    -0.07490
C353        C  0.24761300  0.23863468  0.50810281     0.06030
C354        C  0.24916869  0.23597366  0.53566951    -0.02520
Br355      Br  0.29280695  0.22880233  0.55387247    -0.02210
H356        H  0.22180070  0.24190367  0.57221990     0.09950
H357        H  0.21243016  0.24374328  0.47510176     0.07960
Br358      Br  0.13847780  0.25003951  0.49437491    -0.02640
C359        C  0.13773264  0.48599657  0.51814342    -0.09280
C360        C  0.12664952  0.48122872  0.54432575     0.06920
C361        C  0.09054734  0.48613431  0.55128212    -0.03040
C362        C  0.06622783  0.49459734  0.53193590    -0.07490
C363        C  0.07633111  0.49498562  0.50513960     0.06030
C364        C  0.11308040  0.49278110  0.49848795    -0.02520
Br365      Br  0.13272184  0.49870624  0.46368992    -0.02210
H366        H  0.16571715  0.48393638  0.51292296     0.09950
H367        H  0.03828187  0.99582462  0.53746585     0.07960
Br368      Br  0.07181567  0.97662520  0.58606895    -0.02640
C369        C  0.11571932  0.20070494  0.63619316    -0.09280
C370        C  0.14030400  0.22551323  0.62848354     0.06920
C371        C  0.17061884  0.23108846  0.64381105    -0.03040
C372        C  0.17587573  0.21162986  0.66675161    -0.07490
C373        C  0.15114013  0.18659948  0.67459355     0.06030
C374        C  0.12094711  0.18099473  0.65876058    -0.02520
Br375      Br  0.08712589  0.14482800  0.66489418    -0.02210
H376        H  0.09287126  0.19586999  0.62404477     0.09950
H377        H  0.19918383  0.21611567  0.67846667     0.07960
Br378      Br  0.20526829  0.26501309  0.63407048    -0.02640
C379        C  0.13992430  0.01438670  0.64286411    -0.09280
C380        C  0.17364472  0.01023526  0.63083620     0.06920
C381        C  0.20295130  0.02711389  0.64131226    -0.03040
C382        C  0.19821371  0.04765491  0.66343986    -0.07490
C383        C  0.16440850  0.05257285  0.67547682     0.06030
C384        C  0.13494931  0.03550069  0.66489156    -0.02520
Br385      Br  0.08743151  0.03956574  0.67897479    -0.02210
H386        H  0.11720733  0.00127536  0.63489469     0.09950
H387        H  0.22141615  0.06065364  0.67071376     0.07960
Br388      Br  0.24952232  0.02558862  0.62513653    -0.02640
C389        C  0.11185065  0.22914002  0.92210245    -0.09280
C390        C  0.14233609  0.24805925  0.92866230     0.06920
C391        C  0.14574932  0.25923195  0.95496707    -0.03040
C392        C  0.11650583  0.25729427  0.97209935    -0.07490
C393        C  0.08508042  0.24116783  0.96454755     0.06030
C394        C  0.08432578  0.22405347  0.94026683    -0.02520
Br395      Br  0.04510410  0.19626332  0.92971100    -0.02210
H396        H  0.10797313  0.21962505  0.90236721     0.09950
H397        H  0.11786095  0.26958581  0.99116220     0.07960
Br398      Br  0.18909012  0.27657984  0.96921236    -0.02640
C399        C  0.20181191  0.19481003  0.83644452    -0.09280
C400        C  0.18578746  0.22709763  0.83863129     0.06920
C401        C  0.16157468  0.23812205  0.81937198    -0.03040
C402        C  0.15417826  0.21686501  0.79794618    -0.07490
C403        C  0.17081508  0.18475142  0.79555533     0.06030
C404        C  0.19464735  0.17368775  0.81511635    -0.02520
Br405      Br  0.21706047  0.12925312  0.81450069    -0.02210
H406        H  0.21947064  0.18577849  0.85167431     0.09950
H407        H  0.13598550  0.22561110  0.78298325     0.07960
Br408      Br  0.13706754  0.28132823  0.82217079    -0.02640
C409        C  0.13892571  0.02762591  0.83159833    -0.09280
C410        C  0.15754735  0.99663466  0.82893386     0.06920
C411        C  0.18042661  0.99147419  0.80706028    -0.03040
C412        C  0.18431972  0.01747689  0.78801936    -0.07490
C413        C  0.16546346  0.04852186  0.79074191     0.06030
C414        C  0.14274744  0.05350903  0.81286561    -0.02520
Br415      Br  0.11764984  0.09589066  0.81944388    -0.02210
H416        H  0.12216571  0.03209977  0.84888107     0.09950
H417        H  0.20138222  0.01320388  0.77089307     0.07960
Br418      Br  0.20664657  0.44951978  0.80280775    -0.02640
C419        C  0.24150799  0.39734373  0.95565368    -0.09280
C420        C  0.27042184  0.39177780  0.93809943     0.06920
C421        C  0.30298555  0.40772614  0.94422362    -0.03160
C422        C  0.30351085  0.43441282  0.96280581    -0.07490
C423        C  0.27246911  0.44457711  0.97661573     0.06030
C424        C  0.24321866  0.42213879  0.97560942    -0.02520
Br425      Br  0.20398352  0.42625281  0.99999166    -0.02210
H426        H  0.21667315  0.38400508  0.95309566     0.09950
H427        H  0.32753775  0.44887549  0.96458501     0.07960
Br428      Br  0.34768950  0.39397588  0.92856936    -0.02640
C429        C  0.30211715  0.06550114  0.99440524    -0.09280
C430        C  0.27800507  0.03982213  0.00238601     0.06920
C431        C  0.25653558  0.04674190  0.02496673    -0.03040
C432        C  0.26035608  0.07758278  0.03856497    -0.07490
C433        C  0.29120069  0.09769029  0.03519243     0.06030
C434        C  0.31131519  0.09227131  0.01156152    -0.02520
Br435      Br  0.35492514  0.11515831  0.00274897    -0.02210
H436        H  0.31822594  0.06160909  0.97685705     0.09950
H437        H  0.24197101  0.08255168  0.05475988     0.07960
Br438      Br  0.22960152  0.01247289  0.04385305    -0.02640
C439        C  0.25522102  0.49246838  0.93439216    -0.09280
C440        C  0.24129458  0.49661796  0.96009871     0.06920
C441        C  0.20381501  0.99682374  0.96319223    -0.03040
C442        C  0.18228426  0.48564599  0.94274736    -0.07490
C443        C  0.19716128  0.47569136  0.91852754     0.06030
C444        C  0.23401426  0.48067799  0.91404419    -0.02520
Br445      Br  0.25808322  0.46826678  0.88164357    -0.02210
H446        H  0.28376983  0.49292928  0.93114744     0.09950
H447        H  0.15370581  0.98528763  0.94564410     0.07960
Br448      Br  0.17914412  0.01535087  0.99300690    -0.02640
C449        C  0.38159489  0.50575711  0.01654290    -0.09280
C450        C  0.37559607  0.50299007  0.04387761     0.06920
C451        C  0.34170172  0.99218546  0.05308674    -0.03040
C452        C  0.31559428  0.98344749  0.03523829    -0.07490
C453        C  0.31967250  0.49105802  0.00844230     0.06030
C454        C  0.35383671  0.50066637  0.99886433    -0.02520
Br455      Br  0.36368821  0.50952000  0.96212624    -0.02210
H456        H  0.40752750  0.51317982  0.00895775     0.09950
H457        H  0.29013149  0.97516601  0.04285484     0.07960
Br458      Br  0.32613199  0.99527265  0.08939541    -0.02640
C459        C  0.47301592  0.24028967  0.05175286    -0.09280
C460        C  0.43938674  0.23536069  0.04078782     0.06920
C461        C  0.43604953  0.23817260  0.01317104    -0.03040
C462        C  0.46652689  0.24340193  0.99719776    -0.07490
C463        C  0.50038855  0.24577694  0.00843245     0.06030
C464        C  0.50280612  0.24664708  0.03603725    -0.02520
Br465      Br  0.04686307  0.25361857  0.05356242    -0.02210
H466        H  0.47640616  0.23870652  0.07290962     0.09950
H467        H  0.46424369  0.24238266  0.97594089     0.07960
Br468      Br  0.39105790  0.23439920  0.99632643    -0.02640
C469        C  0.36097934  0.25947752  0.42371078    -0.09280
C470        C  0.39133328  0.23948122  0.42954823     0.06920
C471        C  0.39438671  0.22631996  0.45544032    -0.03040
C472        C  0.36499179  0.22758015  0.47255962    -0.07490
C473        C  0.33374749  0.24499735  0.46563715     0.06030
C474        C  0.33337098  0.26384994  0.44200925    -0.02520
Br475      Br  0.29444637  0.29314580  0.43235369    -0.02210
H476        H  0.35717588  0.27047871  0.40437473     0.09950
H477        H  0.36609052  0.21381655  0.49111095     0.07960
Br478      Br  0.43749561  0.20726066  0.46927218    -0.02640
C479        C  0.39707391  0.47722877  0.14338561    -0.09280
C480        C  0.42934815  0.47579143  0.12904378     0.06920
C481        C  0.45810423  0.45734227  0.13918412    -0.03040
C482        C  0.45393927  0.43977307  0.16295113    -0.07490
C483        C  0.42100661  0.43933955  0.17678217     0.06030
C484        C  0.39259110  0.45917045  0.16707780    -0.02520
Br485      Br  0.34754468  0.46347024  0.18515869    -0.02210
H486        H  0.37520994  0.49250347  0.13606389     0.09950
H487        H  0.47627962  0.42470184  0.16974603     0.07960
Br488      Br  0.50260793  0.45291343  0.12032972    -0.02640
C489        C  0.40268227  0.26836020  0.17431188    -0.09280
C490        C  0.40826283  0.30380905  0.17208639     0.06920
C491        C  0.40378481  0.31983095  0.14743905    -0.03040
C492        C  0.39379871  0.30075017  0.12565427    -0.07490
C493        C  0.38892770  0.26517819  0.12744718     0.06030
C494        C  0.39373455  0.24882729  0.15216856    -0.02520
Br495      Br  0.39081779  0.19998362  0.15681298    -0.02210
H496        H  0.40526816  0.25586185  0.19331913     0.09950
H497        H  0.39043437  0.31379958  0.10693612     0.07960
Br498      Br  0.41065760  0.36783869  0.14201867    -0.02640
C499        C  0.41605312  0.24866726  0.31830533    -0.09280
C500        C  0.43419787  0.26407127  0.33922493     0.06920
C501        C  0.44405256  0.29873194  0.33725966    -0.03040
C502        C  0.43604707  0.31728359  0.31454803    -0.07490
C503        C  0.41795811  0.30198498  0.29366709     0.06030
C504        C  0.40784784  0.26744859  0.29555840    -0.02520
Br505      Br  0.38449519  0.24486865  0.26719541    -0.02210
H506        H  0.40797083  0.22206134  0.31981325     0.09950
H507        H  0.44461081  0.34375418  0.31293005     0.07960
Br508      Br  0.46987226  0.32136404  0.36445935    -0.02640
C509        C  0.43000782  0.00482708  0.45252752    -0.09280
C510        C  0.43815220  0.50416947  0.42546843     0.06920
C511        C  0.47340951  0.49613263  0.41725065    -0.03040
C512        C  0.49904572  0.48844171  0.43572430    -0.07490
C513        C  0.49224642  0.49337930  0.46262786     0.06030
C514        C  0.45673488  0.00007968  0.47116813    -0.02520
Br515      Br  0.44222499  0.00319612  0.50757511    -0.02210
H516        H  0.40296108  0.00980063  0.45918962     0.09950
H517        H  0.52608037  0.48382901  0.42881289     0.07960
Br518      Br  0.49066315  0.50075638  0.38151871    -0.02640
C519        C  0.39915136  0.41798681  0.31731110    -0.09280
C520        C  0.41366038  0.43260510  0.29429064     0.06920
C521        C  0.41956956  0.46816527  0.29307672    -0.03040
C522        C  0.41140574  0.48857360  0.31510530    -0.07490
C523        C  0.39691234  0.47385791  0.33824071     0.06030
C524        C  0.39068917  0.43820230  0.33917252    -0.02520
Br525      Br  0.36866802  0.41601092  0.36913326    -0.02210
H526        H  0.39326845  0.39077025  0.31795402     0.09950
H527        H  0.41649429  0.51591370  0.31423266     0.07960
Br528      Br  0.43675152  0.48984294  0.26136721    -0.02640
C529        C  0.39119295  0.99536400  0.36188556     0.03010
C530        C  0.40940347  0.98711833  0.38453230    -0.13140
C531        C  0.41001669  0.50973543  0.40571518     0.00510
C532        C  0.38564556  0.53761084  0.40656795    -0.11670
C533        C  0.36376286  0.54484004  0.38458834     0.03000
C534        C  0.36989427  0.52486611  0.36147384    -0.11090
H535        H  0.42603547  0.96427801  0.38468736     0.08600
H536        H  0.38455811  0.55349528  0.42398685     0.06120
H537        H  0.35833083  0.53133424  0.34280639     0.05970
O538        O  0.38697192  0.90433192  0.20762333    -0.74550
O539        O  0.38512462  0.83328509  0.26110514    -0.74580
O540        O  0.38594593  0.90196345  0.26115873    -0.74630
O541        O  0.38313064  0.83527732  0.20708063    -0.74680
O542        O  0.44240172  0.83400347  0.20433758    -0.74610
O543        O  0.44526763  0.89952298  0.26154624    -0.74590
O544        O  0.44440202  0.83094183  0.25829880    -0.74570
O545        O  0.44606560  0.90272601  0.20839352    -0.74630
Ni546      Ni  0.38312906  0.86869794  0.23423082     1.25410
Ni547      Ni  0.44663637  0.86658581  0.23305328     1.25360
C548        C  0.41740039  0.91497408  0.19913101     0.87630
C549        C  0.41518958  0.82203924  0.26929881     0.87560
C550        C  0.41548476  0.91091127  0.27083121     0.87590
C551        C  0.41181367  0.82480974  0.19595813     0.87760
C552        C  0.43953659  0.74424342  0.36368046     0.03010
C553        C  0.45873256  0.71352666  0.36324293    -0.13140
C554        C  0.45661337  0.69021359  0.38459553     0.00510
C555        C  0.43414261  0.69859539  0.40615619    -0.11670
C556        C  0.41734606  0.73111750  0.40788306     0.03000
C557        C  0.42142650  0.75404268  0.38662262    -0.11090
H558        H  0.47497717  0.70827021  0.34591553     0.08600
H559        H  0.42863865  0.67915250  0.42088329     0.06120
H560        H  0.40870424  0.77901356  0.38696627     0.05970
C561        C  0.38409403  0.74577809  0.10256355     0.03010
C562        C  0.40740207  0.75195329  0.08151311    -0.13140
C563        C  0.40882626  0.73048138  0.05944579     0.00510
C564        C  0.38520519  0.70241233  0.05821042    -0.11670
C565        C  0.35958021  0.69696212  0.07863211     0.03000
C566        C  0.35846354  0.72027647  0.10006291    -0.11090
H567        H  0.42643643  0.77260450  0.08307404     0.08600
H568        H  0.38806359  0.68410385  0.04227732     0.06120
H569        H  0.33842157  0.71829252  0.11551814     0.05970
C570        C  0.43232225  0.99446865  0.10387244     0.03010
C571        C  0.40906852  0.98707421  0.08377276    -0.13140
C572        C  0.40488782  0.50967027  0.06252660     0.00510
C573        C  0.42753684  0.53856658  0.06026576    -0.11670
C574        C  0.45338708  0.54486795  0.07968169     0.03000
C575        C  0.45543159  0.52201881  0.10122806    -0.11090
H576        H  0.39286824  0.96423423  0.08545701     0.08600
H577        H  0.42416099  0.55648240  0.04411256     0.06120
H578        H  0.47465000  0.52552654  0.11656407     0.05970
C579        C  0.26528298  0.98245398  0.98089435     0.00440
C580        C  0.28704783  0.50343673  0.99497592     0.00440
C581        C  0.15695340  0.47336670  0.85174497     0.03010
C582        C  0.13280124  0.94644878  0.85390931    -0.13140
C583        C  0.12474494  0.93099416  0.87875108     0.00510
C584        C  0.14651075  0.93988275  0.90028776    -0.11670
C585        C  0.17351069  0.96493741  0.89706850     0.03000
C586        C  0.17642782  0.48281111  0.87335591    -0.11090
H587        H  0.11946822  0.93921619  0.83610956     0.08600
H588        H  0.14219486  0.92829531  0.91948879     0.06120
H589        H  0.19378302  0.50490182  0.87173933     0.05970
C590        C  0.19032968  0.74659781  0.86305373     0.03010
C591        C  0.17257727  0.73553174  0.88568370    -0.13140
C592        C  0.16821550  0.75740179  0.90736404     0.00510
C593        C  0.18489961  0.78976911  0.90660548    -0.11670
C594        C  0.20828290  0.79875890  0.88571860     0.03000
C595        C  0.20991360  0.77685624  0.86348390    -0.11090
H596        H  0.16030083  0.71046821  0.88547117     0.08600
H597        H  0.17892493  0.80831969  0.92184601     0.06120
H598        H  0.22627922  0.78237193  0.84632651     0.05970
O599        O  0.13558073  0.65351300  0.76472383    -0.74550
O600        O  0.13248937  0.58690507  0.70833308    -0.74580
O601        O  0.13571624  0.58467615  0.76159147    -0.74630
O602        O  0.12932214  0.65573158  0.71130442    -0.74680
O603        O  0.18811227  0.65620582  0.70556111    -0.74610
O604        O  0.19497508  0.58589678  0.75950833    -0.74590
O605        O  0.19153574  0.58769666  0.70658327    -0.74570
O606        O  0.19455614  0.65505838  0.75935176    -0.74630
Ni607      Ni  0.13113812  0.62027904  0.73663704     1.25410
Ni608      Ni  0.19441734  0.62144550  0.73266597     1.25360
C609        C  0.16632520  0.66394465  0.77181133     0.87630
C610        C  0.16216139  0.57657835  0.69806740     0.87560
C611        C  0.16581459  0.57405916  0.76941557     0.87590
C612        C  0.15682155  0.66573318  0.69857603     0.87760
C613        C  0.17697784  0.48929375  0.60680863     0.03010
C614        C  0.15462458  0.49619124  0.58599251    -0.13140
C615        C  0.15329617  0.97408091  0.56453899     0.00510
C616        C  0.17655408  0.94559858  0.56298595    -0.11670
C617        C  0.20085098  0.93903879  0.58338760     0.03000
C618        C  0.20058656  0.96152520  0.60523556    -0.11090
H619        H  0.13722447  0.51849045  0.58690309     0.08600
H620        H  0.17478644  0.92832262  0.54638178     0.06120
H621        H  0.21856167  0.95795141  0.62136842     0.05970
C622        C  0.13499803  0.74344079  0.60329457     0.03010
C623        C  0.15394132  0.73275542  0.58118852    -0.13140
C624        C  0.15472270  0.75283366  0.55826059     0.00510
C625        C  0.13115994  0.78133837  0.55641947    -0.11670
C626        C  0.10773936  0.79011767  0.57785343     0.03000
C627        C  0.11198141  0.77141284  0.60169840    -0.11090
H628        H  0.17104114  0.71034076  0.58281371     0.08600
H629        H  0.13283016  0.79734850  0.53904380     0.06120
H630        H  0.09879370  0.77831917  0.61990950     0.05970
C631        C  0.05169508  0.75313006  0.97717262     0.00440
C632        C  0.03189100  0.73268550  0.99343971     0.00440
O633        O  0.44275617  0.85069986  0.76066129    -0.74550
O634        O  0.37313009  0.84327343  0.70625877    -0.74580
O635        O  0.44493955  0.84785861  0.70649660    -0.74630
O636        O  0.37156887  0.84608816  0.76008192    -0.74680
O637        O  0.36756833  0.90311051  0.75864485    -0.74610
O638        O  0.44014998  0.90491332  0.70429014    -0.74590
O639        O  0.36876387  0.90025345  0.70512491    -0.74570
O640        O  0.43841226  0.90783920  0.75879442    -0.74630
Ni641      Ni  0.40832326  0.84493356  0.73339279     1.25410
Ni642      Ni  0.40370551  0.90602577  0.73157813     1.25360
C643        C  0.45048369  0.88047352  0.76956846     0.87630
C644        C  0.35957182  0.87072810  0.69657061     0.87560
C645        C  0.45361367  0.87657409  0.69583503     0.87590
C646        C  0.35831733  0.87434244  0.76886974     0.87760
C647        C  0.27328333  0.86807230  0.86489804     0.03010
C648        C  0.28150051  0.88344212  0.88894252    -0.13140
C649        C  0.26477406  0.87262973  0.91271410     0.00510
C650        C  0.24060632  0.84497253  0.91156909    -0.11670
C651        C  0.23107491  0.83023844  0.88715560     0.03000
C652        C  0.24626058  0.84393779  0.86397512    -0.11090
H653        H  0.30076713  0.90387935  0.88879507     0.08600
H654        H  0.22999143  0.83459685  0.92983989     0.06120
H655        H  0.23914041  0.83461212  0.84475724     0.05970
C656        C  0.03585810  0.89006954  0.86298050     0.03010
C657        C  0.06535996  0.91131508  0.86268104    -0.13140
C658        C  0.09203554  0.90859714  0.88181284     0.00510
C659        C  0.08648364  0.88462769  0.90281508    -0.11670
C660        C  0.05472703  0.86482089  0.90456735     0.03000
C661        C  0.02899311  0.86953710  0.88501332    -0.11090
H662        H  0.06685613  0.92973515  0.84677482     0.08600
H663        H  0.10683695  0.88072641  0.91733473     0.06120
H664        H  0.00401008  0.85598062  0.88617554     0.05970
C665        C  0.26719040  0.87200944  0.60633891     0.03010
C666        C  0.23929194  0.89564507  0.60642159    -0.13140
C667        C  0.22581890  0.90879356  0.58268489     0.00510
C668        C  0.23834289  0.89419621  0.55872278    -0.11670
C669        C  0.26199058  0.86579346  0.55867234     0.03000
C670        C  0.27688309  0.85557700  0.58289068    -0.11090
H671        H  0.23036370  0.90530432  0.62537080     0.08600
H672        H  0.23042123  0.90535201  0.54019252     0.06120
H673        H  0.29680426  0.83545807  0.58371288     0.05970
C674        C  0.04249778  0.85992666  0.60178786     0.03010
C675        C  0.06066398  0.82865469  0.59944410    -0.13140
C676        C  0.08166747  0.82019559  0.57690505     0.00510
C677        C  0.07663955  0.84063909  0.55400390    -0.11670
C678        C  0.05476678  0.87045416  0.55478715     0.03000
C679        C  0.04097054  0.88125476  0.57949115    -0.11090
H680        H  0.05716376  0.81098686  0.61555930     0.08600
H681        H  0.08866506  0.83305425  0.53545008     0.06120
H682        H  0.02782812  0.90595214  0.58121281     0.05970
C683        C  0.01818252  0.61213079  0.10307111     0.03010
C684        C  0.99016796  0.58882327  0.10275256    -0.13140
C685        C  0.97749657  0.57545312  0.07890105     0.00510
C686        C  0.99042572  0.58971930  0.05500033    -0.11670
C687        C  0.01443689  0.61756221  0.05505490     0.03000
C688        C  0.02903843  0.62751677  0.07937347    -0.11090
H689        H  0.98014347  0.57957877  0.12157860     0.08600
H690        H  0.48252208  0.57864060  0.03650785     0.06120
H691        H  0.04953465  0.64680769  0.08002992     0.05970
C692        C  0.30133957  0.62591928  0.10665644     0.03010
C693        C  0.32554491  0.65260258  0.10447331    -0.13140
C694        C  0.33657206  0.66545506  0.07965691     0.00510
C695        C  0.32421042  0.64879346  0.05671416    -0.11670
C696        C  0.30353574  0.61835249  0.05866481     0.03000
C697        C  0.29311073  0.60718642  0.08429893    -0.11090
H698        H  0.33380851  0.66435722  0.12261177     0.08600
H699        H  0.32965267  0.66039480  0.03775397     0.06120
H700        H  0.27710913  0.58452504  0.08735983     0.05970
O701        O  0.19410761  0.58547794  0.20593033    -0.74550
O702        O  0.11684370  0.58568915  0.25706201    -0.74580
O703        O  0.12238037  0.58608312  0.20345166    -0.74630
O704        O  0.18810269  0.58427851  0.25992591    -0.74680
O705        O  0.18792876  0.64157622  0.26078450    -0.74610
O706        O  0.12266877  0.64305631  0.20276978    -0.74590
O707        O  0.11675482  0.64276973  0.25620128    -0.74570
O708        O  0.19423372  0.64260198  0.20697062    -0.74630
Ni709      Ni  0.15541086  0.58334969  0.23152089     1.25410
Ni710      Ni  0.15549892  0.64452293  0.23165904     1.25360
C711        C  0.20635352  0.61430746  0.19756391     0.87630
C712        C  0.10485821  0.61458526  0.26565783     0.87560
C713        C  0.11162600  0.61442624  0.19353208     0.87590
C714        C  0.19769936  0.61250863  0.27035088     0.87760
C715        C  0.01031417  0.61576894  0.35701026     0.03010
C716        C  0.02066967  0.59841048  0.37983515    -0.13140
C717        C  0.01170516  0.61124090  0.40521565     0.00510
C718        C  0.99015556  0.64120401  0.40674249    -0.11670
C719        C  0.97683807  0.65697261  0.38368379     0.03000
C720        C  0.98591756  0.64261643  0.35911834    -0.11090
H721        H  0.03667669  0.57552907  0.37741704     0.08600
H722        H  0.48464697  0.65290895  0.42569396     0.06120
H723        H  0.97655358  0.65388040  0.34098060     0.05970
C724        C  0.28235502  0.59716544  0.36378993     0.03010
C725        C  0.27616937  0.61808661  0.38560707    -0.13140
C726        C  0.30089673  0.62011610  0.40596662     0.00510
C727        C  0.33015720  0.59676106  0.40567740    -0.11670
C728        C  0.33442162  0.57191580  0.38520059     0.03000
C729        C  0.30940734  0.57270816  0.36467369    -0.11090
H730        H  0.25258609  0.63410165  0.38601452     0.08600
H731        H  0.34943913  0.59852056  0.42112314     0.06120
H732        H  0.30978190  0.55434852  0.34885277     0.05970
C733        C  0.04806972  0.98259697  0.48739135     0.00440
C734        C  0.02358969  0.00539407  0.47747040     0.00440
C735        C  0.30008989  0.73281634  0.47776282     0.00440
C736        C  0.27947363  0.75256208  0.49409087     0.00440
C737        C  0.30410938  0.64149337  0.45321572    -0.09280
C738        C  0.29589937  0.64765336  0.42654257     0.06920
C739        C  0.28197730  0.68049347  0.41994142    -0.03040
C740        C  0.27464257  0.70461993  0.43958657    -0.07490
C741        C  0.28745317  0.70043664  0.46513920     0.06030
C742        C  0.30110794  0.66787905  0.47218761    -0.02520
Br743      Br  0.31700705  0.65881144  0.50720016    -0.02210
H744        H  0.31418609  0.61660565  0.45917496     0.09950
H745        H  0.26398676  0.72922065  0.43373320     0.07960
Br746      Br  0.27980806  0.69806546  0.38438676    -0.02640
C747        C  0.00320513  0.59278362  0.45309546    -0.09280
C748        C  0.02399329  0.59259978  0.42963750     0.06920
C749        C  0.05477443  0.57150811  0.42948686    -0.03040
C750        C  0.05742230  0.54461304  0.44768937    -0.07490
C751        C  0.03357143  0.54138549  0.46914275     0.06030
C752        C  0.00972790  0.56901680  0.47343934    -0.02520
Br753      Br  0.48721079  0.57637122  0.50703257    -0.02210
H754        H  0.48126447  0.61057960  0.45563154     0.09950
H755        H  0.07523779  0.52395078  0.44276651     0.07960
Br756      Br  0.09501876  0.57861983  0.40620817    -0.02640
C757        C  0.05287148  0.64341889  0.32664526    -0.09280
C758        C  0.03267133  0.61424721  0.33269510     0.06920
C759        C  0.03473571  0.58574861  0.31578630    -0.03040
C760        C  0.05772058  0.58648378  0.29365037    -0.07490
C761        C  0.07839685  0.61567527  0.28775127     0.06030
C762        C  0.07529544  0.64463565  0.30455366    -0.02520
Br763      Br  0.10255117  0.68610986  0.30058682    -0.02210
H764        H  0.05159315  0.66548825  0.33963231     0.09950
H765        H  0.05939572  0.56413546  0.28101211     0.07960
Br766      Br  0.00560607  0.54626359  0.32132486    -0.02640
C767        C  0.25624857  0.61256956  0.29231436    -0.09280
C768        C  0.21915943  0.61092632  0.29437184     0.06920
C769        C  0.20308045  0.60486202  0.31927243    -0.03040
C770        C  0.22394688  0.60049411  0.34156950    -0.07490
C771        C  0.26107432  0.60158206  0.33959353     0.06030
C772        C  0.27727974  0.60802843  0.31463633    -0.02520
Br773      Br  0.32781770  0.61237001  0.30990521    -0.02210
H774        H  0.26889714  0.61703748  0.27325087     0.09950
H775        H  0.21110525  0.59570448  0.36051689     0.07960
Br776      Br  0.15274653  0.60169597  0.32410603    -0.02640
C777        C  0.27953698  0.59266407  0.14637009    -0.09280
C778        C  0.27903212  0.62266677  0.13092225     0.06920
C779        C  0.25528587  0.64938433  0.13786501    -0.03040
C780        C  0.23295646  0.64604153  0.15989804    -0.07490
C781        C  0.23295852  0.61612465  0.17549609     0.06030
C782        C  0.25685459  0.58923078  0.16861715    -0.02520
Br783      Br  0.26081621  0.54794774  0.18912245    -0.02210
H784        H  0.29758778  0.57191441  0.14110927     0.09950
H785        H  0.21451806  0.66680969  0.16428604     0.07960
Br786      Br  0.25005156  0.69023458  0.11679775    -0.02640
C787        C  0.05224121  0.58340323  0.13811852    -0.09280
C788        C  0.04027354  0.61436528  0.12711228     0.06920
C789        C  0.05104114  0.64549857  0.13851880    -0.03040
C790        C  0.07396511  0.64502347  0.16016245    -0.07490
C791        C  0.08645557  0.61383600  0.17100339     0.06030
C792        C  0.07470849  0.58266368  0.15969034    -0.02520
Br793      Br  0.08774587  0.53738181  0.17162689    -0.02210
H794        H  0.04448828  0.55921616  0.12945570     0.09950
H795        H  0.08197128  0.66926822  0.16853370     0.07960
Br796      Br  0.03385599  0.68909441  0.12621225    -0.02640
C797        C  0.01206085  0.93644365  0.50930011    -0.09280
C798        C  0.04051167  0.94491141  0.49234805     0.06920
C799        C  0.06853280  0.92063195  0.49049506    -0.03040
C800        C  0.07301218  0.89577905  0.51036282    -0.07490
C801        C  0.04719005  0.89161563  0.53053738     0.06030
C802        C  0.01449532  0.90937546  0.52745507    -0.02520
Br803      Br  0.47171014  0.89770318  0.54662386    -0.02210
H804        H  0.48896330  0.95250334  0.51022020     0.09950
H805        H  0.09711584  0.88051047  0.51015945     0.07960
Br806      Br  0.09970690  0.91906569  0.46037716    -0.02640
C807        C  0.30593771  0.83118393  0.53205620    -0.09280
C808        C  0.27183120  0.84625923  0.53406772     0.06920
C809        C  0.24684076  0.83728670  0.51472454    -0.03040
C810        C  0.25525797  0.81141786  0.49654683    -0.07490
C811        C  0.28528662  0.79012413  0.49975073     0.06030
C812        C  0.31236288  0.80230033  0.51623055    -0.02520
Br813      Br  0.35685214  0.77944930  0.52140044    -0.02210
H814        H  0.32674883  0.83941778  0.54504798     0.09950
H815        H  0.23504161  0.80399706  0.48278705     0.07960
Br816      Br  0.19826136  0.85294002  0.51454921    -0.02640
C817        C  0.48764152  0.88206176  0.62500722    -0.09280
C818        C  0.02214235  0.86830214  0.62676597     0.06920
C819        C  0.03514756  0.86063227  0.65228773    -0.03040
C820        C  0.51273566  0.86385585  0.67464525    -0.07490
C821        C  0.47796641  0.87653356  0.67249958     0.06030
C822        C  0.46598396  0.88669414  0.64746426    -0.02520
Br823      Br  0.41930479  0.90493311  0.64235326    -0.02210
H824        H  0.47675712  0.88817966  0.60594545     0.09950
H825        H  0.52261561  0.85669204  0.69385658     0.07960
Br826      Br  0.08367739  0.84764281  0.65840892    -0.02640
C827        C  0.50798768  0.87348298  0.79239910    -0.09280
C828        C  0.47217552  0.88328767  0.79341847     0.06920
C829        C  0.45721743  0.89496794  0.81755481    -0.03040
C830        C  0.47801879  0.89657784  0.84013659    -0.07490
C831        C  0.01402151  0.88745168  0.83901518     0.06030
C832        C  0.02903689  0.87584566  0.81482113    -0.02520
Br833      Br  0.07790524  0.86187184  0.81140352    -0.02210
H834        H  0.01969299  0.86424702  0.77404920     0.09950
H835        H  0.46617761  0.90540610  0.85855791     0.07960
Br836      Br  0.40834695  0.90829221  0.82112691    -0.02640
C837        C  0.33813363  0.84566521  0.81008274    -0.09280
C838        C  0.33454416  0.87352098  0.79261481     0.06920
C839        C  0.31118563  0.90078247  0.79977372    -0.03040
C840        C  0.29233650  0.89963417  0.82395489    -0.07490
C841        C  0.29639869  0.87177630  0.84121787     0.06030
C842        C  0.31957669  0.84472474  0.83410707    -0.02520
Br843      Br  0.32695783  0.80578372  0.85679751    -0.02210
H844        H  0.35628321  0.82475993  0.80543281     0.09950
H845        H  0.27393046  0.92012464  0.82905892     0.07960
Br846      Br  0.30242957  0.93934951  0.77706444    -0.02640
C847        C  0.33085821  0.89914017  0.65876432    -0.09280
C848        C  0.33439539  0.86937075  0.67425876     0.06920
C849        C  0.31500496  0.83975929  0.66718312    -0.03040
C850        C  0.29322323  0.84057241  0.64489554    -0.07490
C851        C  0.29048089  0.87042030  0.62948637     0.06030
C852        C  0.30998313  0.89965596  0.63642192    -0.02520
Br853      Br  0.31089322  0.94064558  0.61514616    -0.02210
H854        H  0.34537966  0.92218111  0.66348196     0.09950
H855        H  0.27814091  0.81803452  0.63973388     0.07960
Br856      Br  0.31540755  0.79815882  0.68757200    -0.02640
C857        C  0.00828904  0.67385640  0.99374562    -0.09280
C858        C  0.03813186  0.69475095  0.99766778     0.06920
C859        C  0.06525657  0.68136275  0.01376889    -0.03040
C860        C  0.05886384  0.65172917  0.02880787    -0.07490
C861        C  0.02469761  0.63715206  0.03053276     0.06030
C862        C  0.99985303  0.64723227  0.01129394    -0.02520
Br863      Br  0.45140734  0.63213171  0.01065348    -0.02210
H864        H  0.98810212  0.68220353  0.98015036     0.09950
H865        H  0.07964501  0.64258718  0.04161123     0.07960
Br866      Br  0.10979997  0.70327432  0.01944435    -0.02640
C867        C  0.05835118  0.84375832  0.95201548    -0.09280
C868        C  0.04831468  0.83801828  0.92569887     0.06920
C869        C  0.03139408  0.80640961  0.92006992    -0.03040
C870        C  0.02389780  0.78284354  0.94024382    -0.07490
C871        C  0.03868184  0.78616231  0.96524831     0.06030
C872        C  0.05442829  0.81790485  0.97146079    -0.02520
Br873      Br  0.07173938  0.82645200  0.00610855    -0.02210
H874        H  0.07048293  0.86785988  0.95730423     0.09950
H875        H  0.01138209  0.75897111  0.93507714     0.07960
Br876      Br  0.02483992  0.78929386  0.88486295    -0.02640
C877        C  0.21880905  0.74121665  0.55101425    -0.09280
C878        C  0.18539026  0.74689882  0.53970103     0.06920
C879        C  0.18294667  0.74562089  0.51194510    -0.03040
C880        C  0.21404881  0.74147335  0.49635290    -0.07490
C881        C  0.24761259  0.73863648  0.50810241     0.06030
C882        C  0.24916813  0.73597428  0.53566903    -0.02520
Br883      Br  0.29280628  0.72880249  0.55387206    -0.02210
H884        H  0.22179985  0.74190273  0.57221943     0.09950
H885        H  0.21243012  0.74374647  0.47510125     0.07960
Br886      Br  0.13847760  0.75004225  0.49437424    -0.02640
C887        C  0.13773703  0.98599635  0.51814754    -0.09280
C888        C  0.12665313  0.98122877  0.54432976     0.06920
C889        C  0.09055078  0.98613483  0.55128549    -0.03040
C890        C  0.06623196  0.99459815  0.53193883    -0.07490
C891        C  0.07633603  0.99498649  0.50514268     0.06030
C892        C  0.11308546  0.99278122  0.49849164    -0.02520
Br893      Br  0.13272790  0.99870567  0.46369385    -0.02210
H894        H  0.16572164  0.98393567  0.51292750     0.09950
H895        H  0.03827787  0.49582337  0.53746338     0.07960
Br896      Br  0.07181349  0.47662434  0.58606588    -0.02640
C897        C  0.11572042  0.70070288  0.63619140    -0.09280
C898        C  0.14030417  0.72551226  0.62848239     0.06920
C899        C  0.17061848  0.73108849  0.64381027    -0.03040
C900        C  0.17587567  0.71162983  0.66675073    -0.07490
C901        C  0.15114084  0.68659851  0.67459213     0.06030
C902        C  0.12094851  0.68099267  0.65875871    -0.02520
Br903      Br  0.08712869  0.64482453  0.66489157    -0.02210
H904        H  0.09287285  0.69586721  0.62404268     0.09950
H905        H  0.19918328  0.71611635  0.67846616     0.07960
Br906      Br  0.20526679  0.76501446  0.63407023    -0.02640
C907        C  0.13992309  0.51438729  0.64285951    -0.09280
C908        C  0.17364320  0.51023695  0.63083089     0.06920
C909        C  0.20294962  0.52711654  0.64130624    -0.03040
C910        C  0.19821222  0.54765742  0.66343394    -0.07490
C911        C  0.16440738  0.55257381  0.67547185     0.06030
C912        C  0.13494831  0.53550085  0.66488718    -0.02520
Br913      Br  0.08743107  0.53956374  0.67897186    -0.02210
H914        H  0.11720627  0.50127519  0.63489058     0.09950
H915        H  0.22141446  0.56065698  0.67070734     0.07960
Br916      Br  0.24952008  0.52559220  0.62512955    -0.02640
C917        C  0.11185119  0.72913311  0.92210208    -0.09280
C918        C  0.14233730  0.74805100  0.92866266     0.06920
C919        C  0.14575032  0.75922262  0.95496772    -0.03040
C920        C  0.11650638  0.75728520  0.97209966    -0.07490
C921        C  0.08508048  0.74116020  0.96454711     0.06030
C922        C  0.08432582  0.72404668  0.94026607    -0.02520
Br923      Br  0.04510339  0.69625807  0.92970936    -0.02210
H924        H  0.10797359  0.71961904  0.90236660     0.09950
H925        H  0.11786151  0.76957589  0.99116284     0.07960
Br926      Br  0.18909138  0.77656852  0.96921395    -0.02640
C927        C  0.20181108  0.69480083  0.83644452    -0.09280
C928        C  0.18578838  0.72708917  0.83863175     0.06920
C929        C  0.16157654  0.73811555  0.81937241    -0.03040
C930        C  0.15417948  0.71685969  0.79794605    -0.07490
C931        C  0.17081468  0.68474539  0.79555470     0.06030
C932        C  0.19464586  0.67367974  0.81511580    -0.02520
Br933      Br  0.21705677  0.62924412  0.81449931    -0.02210
H934        H  0.21946908  0.68576786  0.85167430     0.09950
H935        H  0.13598759  0.72560730  0.78298303     0.07960
Br936      Br  0.13707165  0.78132293  0.82217182    -0.02640
C937        C  0.13892033  0.52761844  0.83159177    -0.09280
C938        C  0.15754338  0.49662793  0.82892762     0.06920
C939        C  0.18042391  0.49146854  0.80705463    -0.03040
C940        C  0.18431745  0.51747186  0.78801425    -0.07490
C941        C  0.16546029  0.54851634  0.79073679     0.06030
C942        C  0.14274257  0.55350220  0.81285972    -0.02520
Br943      Br  0.11764362  0.59588307  0.81943823    -0.02210
H944        H  0.12215925  0.53209146  0.84887408     0.09950
H945        H  0.20138113  0.51319980  0.77088846     0.07960
Br946      Br  0.20664819  0.94952477  0.80281326    -0.02640
C947        C  0.24152255  0.89733331  0.95565352    -0.09280
C948        C  0.27043554  0.89176311  0.93809940     0.06920
C949        C  0.30300105  0.90770909  0.94422206    -0.03160
C950        C  0.30352947  0.93439779  0.96280238    -0.07490
C951        C  0.27248894  0.94456591  0.97661215     0.06030
C952        C  0.24323586  0.92213058  0.97560741    -0.02520
Br953      Br  0.20399944  0.92625369  0.99998777    -0.02210
H954        H  0.21668623  0.88399694  0.95309617     0.09950
H955        H  0.32755765  0.94885927  0.96457972     0.07960
Br956      Br  0.34770293  0.89395356  0.92856719    -0.02640
C957        C  0.30209183  0.56551392  0.99440121    -0.09280
C958        C  0.27797854  0.53983721  0.00238467     0.06920
C959        C  0.25650936  0.54676236  0.02496467    -0.03040
C960        C  0.26033409  0.57760418  0.03856089    -0.07490
C961        C  0.29118247  0.59770598  0.03518776     0.06030
C962        C  0.31129454  0.59228393  0.01155625    -0.02520
Br963      Br  0.35490621  0.61516650  0.00274148    -0.02210
H964        H  0.31819852  0.56161932  0.97685236     0.09950
H965        H  0.24195062  0.58257697  0.05475616     0.07960
Br966      Br  0.22957196  0.51249931  0.04385432    -0.02640
C967        C  0.25524040  0.99245367  0.93438813    -0.09280
C968        C  0.24131874  0.99660975  0.96009548     0.06920
C969        C  0.20379049  0.49682326  0.96319266    -0.03040
C970        C  0.18230315  0.98564703  0.94274992    -0.07490
C971        C  0.19717446  0.97568621  0.91852976     0.06030
C972        C  0.23402779  0.98066528  0.91404287    -0.02520
Br973      Br  0.25808788  0.96824815  0.88164012    -0.02210
H974        H  0.28378887  0.99290866  0.93114085     0.09950
H975        H  0.15368674  0.48527957  0.94563953     0.07960
Br976      Br  0.17911069  0.51533348  0.99300963    -0.02640
C977        C  0.38162373  0.00573996  0.01653271    -0.09280
C978        C  0.37562827  0.00296951  0.04386766     0.06920
C979        C  0.34166833  0.49220788  0.05309534    -0.03040
C980        C  0.31556306  0.48346752  0.03524577    -0.07490
C981        C  0.31970022  0.99104210  0.00843533     0.06030
C982        C  0.35386323  0.00065116  0.99885568    -0.02520
Br983      Br  0.36370900  0.00950781  0.96211729    -0.02210
H984        H  0.40755532  0.01316397  0.00894633     0.09950
H985        H  0.29009926  0.47518728  0.04286129     0.07960
Br986      Br  0.32609516  0.49530027  0.08940302    -0.02640
C987        C  0.47301603  0.74028723  0.05175138    -0.09280
C988        C  0.43938621  0.73536080  0.04078671     0.06920
C989        C  0.43604833  0.73817458  0.01317009    -0.03040
C990        C  0.46652560  0.74340288  0.99719649    -0.07490
C991        C  0.50038779  0.74577483  0.00843073     0.06030
C992        C  0.50280620  0.74664361  0.03603551    -0.02520
Br993      Br  0.04686436  0.75361051  0.05356020    -0.02210
H994        H  0.47640681  0.73870261  0.07290803     0.09950
H995        H  0.46424175  0.74238475  0.97593963     0.07960
Br996      Br  0.39105591  0.73440482  0.99632610    -0.02640
C997        C  0.36097828  0.75947974  0.42371039    -0.09280
C998        C  0.39133153  0.73948209  0.42954721     0.06920
C999        C  0.39438497  0.72632009  0.45543908    -0.03040
C1000       C  0.36499036  0.72758082  0.47255864    -0.07490
C1001       C  0.33374663  0.74499935  0.46563671     0.06030
C1002       C  0.33337048  0.76385278  0.44200923    -0.02520
Br1003     Br  0.29444684  0.79315045  0.43235468    -0.02210
H1004       H  0.35717476  0.77048156  0.40437456     0.09950
H1005       H  0.36608879  0.71381654  0.49110969     0.07960
Br1006     Br  0.43749344  0.70725906  0.46927031    -0.02640
C1007       C  0.39710631  0.97722084  0.14337525    -0.09280
C1008       C  0.42938046  0.97577583  0.12903380     0.06920
C1009       C  0.45813385  0.95732557  0.13917694    -0.03040
C1010       C  0.45396574  0.93976155  0.16294602    -0.07490
C1011       C  0.42103251  0.93933509  0.17677658     0.06030
C1012       C  0.39262029  0.95916808  0.16706957    -0.02520
Br1013     Br  0.34757420  0.96347796  0.18514953    -0.02210
H1014       H  0.37524500  0.99249753  0.13605170     0.09950
H1015       H  0.47630372  0.92468874  0.16974312     0.07960
Br1016     Br  0.50263789  0.95288950  0.12032410    -0.02640
C1017       C  0.40268943  0.76835947  0.17431142    -0.09280
C1018       C  0.40826886  0.80380853  0.17208564     0.06920
C1019       C  0.40378785  0.81983022  0.14743851    -0.03040
C1020       C  0.39380069  0.80074913  0.12565425    -0.07490
C1021       C  0.38893092  0.76517710  0.12744739     0.06030
C1022       C  0.39373992  0.74882634  0.15216854    -0.02520
Br1023     Br  0.39082282  0.69998270  0.15681294    -0.02210
H1024       H  0.40527714  0.75586122  0.19331854     0.09950
H1025       H  0.39043453  0.81379836  0.10693621     0.07960
Br1026     Br  0.41065788  0.86783813  0.14201746    -0.02640
C1027       C  0.41605072  0.74866940  0.31830342    -0.09280
C1028       C  0.43419473  0.76407268  0.33922371     0.06920
C1029       C  0.44404889  0.79873361  0.33725949    -0.03040
C1030       C  0.43604374  0.81728614  0.31454822    -0.07490
C1031       C  0.41795572  0.80198823  0.29366655     0.06030
C1032       C  0.40784602  0.76745159  0.29555677    -0.02520
Br1033     Br  0.38449545  0.74487242  0.26719245    -0.02210
H1034       H  0.40796883  0.72206329  0.31981047     0.09950
H1035       H  0.44460802  0.84375660  0.31293079     0.07960
Br1036     Br  0.46986837  0.82136482  0.36445976    -0.02640
C1037       C  0.43000050  0.50482629  0.45252883    -0.09280
C1038       C  0.43816121  0.00417021  0.42546736     0.06920
C1039       C  0.47341919  0.99613403  0.41725083    -0.03040
C1040       C  0.49905444  0.98844418  0.43572547    -0.07490
C1041       C  0.49225325  0.99338181  0.46262878     0.06030
C1042       C  0.45672871  0.50007798  0.47116848    -0.02520
Br1043     Br  0.44222139  0.50319420  0.50757601    -0.02210
H1044       H  0.40295426  0.50980036  0.45919186     0.09950
H1045       H  0.52608964  0.98383207  0.42881505     0.07960
Br1046     Br  0.49067518  0.00075742  0.38151949    -0.02640
C1047       C  0.39916722  0.91798882  0.31730853    -0.09280
C1048       C  0.41367434  0.93260797  0.29428776     0.06920
C1049       C  0.41957973  0.96816876  0.29307350    -0.03040
C1050       C  0.41141489  0.98857669  0.31510219    -0.07490
C1051       C  0.39692372  0.97386006  0.33823802     0.06030
C1052       C  0.39070369  0.93820387  0.33916996    -0.02520
Br1053     Br  0.36868458  0.91601084  0.36913080    -0.02210
H1054       H  0.39328614  0.89077191  0.31795155     0.09950
H1055       H  0.41650089  0.01591723  0.31422928     0.07960
Br1056     Br  0.43675820  0.98984754  0.26136344    -0.02640
C1057       C  0.89118210  0.49536225  0.36188792     0.03010
C1058       C  0.90939186  0.48711632  0.38453491    -0.13140
C1059       C  0.91002679  0.00973639  0.40571329     0.00510
C1060       C  0.88565434  0.03761063  0.40656669    -0.11670
C1061       C  0.86377134  0.04483986  0.38458733     0.03000
C1062       C  0.86990337  0.02486687  0.36147232    -0.11090
H1063       H  0.92602293  0.46427535  0.38469040     0.08600
H1064       H  0.88456588  0.05349414  0.42398607     0.06120
H1065       H  0.85833900  0.03133489  0.34280518     0.05970
O1066       O  0.88695348  0.40432845  0.20762820    -0.74550
O1067       O  0.88512078  0.33327812  0.26110731    -0.74580
O1068       O  0.88593273  0.40195646  0.26116344    -0.74630
O1069       O  0.88312233  0.33527313  0.20708306    -0.74680
O1070       O  0.94239342  0.33400688  0.20433777    -0.74610
O1071       O  0.94525490  0.39952454  0.26154744    -0.74590
O1072       O  0.94439836  0.33094336  0.25829892    -0.74570
O1073       O  0.94604745  0.40272965  0.20839514    -0.74630
Ni1074     Ni  0.88311810  0.36869222  0.23423445     1.25410
Ni1075     Ni  0.94662567  0.36658855  0.23305395     1.25360
C1076       C  0.91737970  0.41497512  0.19913487     0.87630
C1077       C  0.91518791  0.32203629  0.26929975     0.87560
C1078       C  0.91547128  0.41090829  0.27083428     0.87590
C1079       C  0.91180608  0.32480973  0.19595922     0.87760
C1080       C  0.93953994  0.24424301  0.36368208     0.03010
C1081       C  0.95873684  0.21352683  0.36324510    -0.13140
C1082       C  0.95661764  0.19021396  0.38459778     0.00510
C1083       C  0.93414617  0.19859547  0.40615811    -0.11670
C1084       C  0.91734863  0.23111716  0.40788448     0.03000
C1085       C  0.92142890  0.25404215  0.38662388    -0.11090
H1086       H  0.97498203  0.20827055  0.34591796     0.08600
H1087       H  0.92864240  0.17915265  0.42088530     0.06120
H1088       H  0.90870580  0.27901266  0.38696708     0.05970
C1089       C  0.88409171  0.24577905  0.10256323     0.03010
C1090       C  0.90740032  0.25195410  0.08151310    -0.13140
C1091       C  0.90882645  0.23048088  0.05944654     0.00510
C1092       C  0.88520709  0.20241041  0.05821179    -0.11670
C1093       C  0.85958143  0.19696031  0.07863305     0.03000
C1094       C  0.85846224  0.22027646  0.10006265    -0.11090
H1095       H  0.92643378  0.27260610  0.08307381     0.08600
H1096       H  0.88806748  0.18410082  0.04227959     0.06120
H1097       H  0.83841950  0.21829282  0.11551734     0.05970
C1098       C  0.93228671  0.49448860  0.10388407     0.03010
C1099       C  0.90903209  0.48709573  0.08378466    -0.13140
C1100       C  0.90492166  0.00964956  0.06251542     0.00510
C1101       C  0.92756779  0.03854814  0.06025548    -0.11670
C1102       C  0.95341764  0.04485070  0.07967150     0.03000
C1103       C  0.95546532  0.02200012  0.10121669    -0.11090
H1104       H  0.89283045  0.46425663  0.08546890     0.08600
H1105       H  0.92418938  0.05646516  0.04410337     0.06120
H1106       H  0.97468344  0.02550894  0.11655280     0.05970
C1107       C  0.76525890  0.48246460  0.98089822     0.00440
C1108       C  0.78707415  0.00342354  0.99497222     0.00440
C1109       C  0.65695654  0.97337272  0.85175082     0.03010
C1110       C  0.63279935  0.44644172  0.85390370    -0.13140
C1111       C  0.62474131  0.43098963  0.87874604     0.00510
C1112       C  0.64650434  0.43988143  0.90028336    -0.11670
C1113       C  0.67350295  0.46493743  0.89706439     0.03000
C1114       C  0.67643391  0.98281370  0.87336107    -0.11090
H1115       H  0.61946768  0.43920693  0.83610387     0.08600
H1116       H  0.64218650  0.42829606  0.91948490     0.06120
H1117       H  0.69379162  0.00490260  0.87174451     0.05970
C1118       C  0.69032767  0.24660717  0.86305299     0.03010
C1119       C  0.67257589  0.23554061  0.88568313    -0.13140
C1120       C  0.66821308  0.25741088  0.90736321     0.00510
C1121       C  0.68489490  0.28977918  0.90660412    -0.11670
C1122       C  0.70827781  0.29876978  0.88571728     0.03000
C1123       C  0.70990978  0.27686678  0.86348278    -0.11090
H1124       H  0.66030074  0.21047647  0.88547095     0.08600
H1125       H  0.67891879  0.30832976  0.92184435     0.06120
H1126       H  0.72627495  0.28238310  0.84632528     0.05970
O1127       O  0.63558126  0.15351689  0.76472559    -0.74550
O1128       O  0.63249023  0.08690530  0.70833731    -0.74580
O1129       O  0.63571797  0.08467982  0.76159591    -0.74630
O1130       O  0.62932188  0.15573209  0.71130604    -0.74680
O1131       O  0.68811196  0.15620747  0.70556271    -0.74610
O1132       O  0.69497676  0.08590109  0.75951184    -0.74590
O1133       O  0.69153653  0.08769828  0.70658676    -0.74570
O1134       O  0.69455660  0.15506265  0.75935324    -0.74630
Ni1135     Ni  0.63113882  0.12028108  0.73664005     1.25410
Ni1136     Ni  0.69441795  0.12144846  0.73266845     1.25360
C1137       C  0.66632567  0.16394928  0.77181265     0.87630
C1138       C  0.66216230  0.07657869  0.69807162     0.87560
C1139       C  0.66581670  0.07406365  0.76941992     0.87590
C1140       C  0.65682105  0.16573407  0.69857749     0.87760
C1141       C  0.67697958  0.98929221  0.60681380     0.03010
C1142       C  0.65462689  0.99619018  0.58599740    -0.13140
C1143       C  0.65329318  0.47408138  0.56453451     0.00510
C1144       C  0.67655071  0.44559878  0.56298163    -0.11670
C1145       C  0.70084792  0.43903937  0.58338309     0.03000
C1146       C  0.70058463  0.46152663  0.60523051    -0.11090
H1147       H  0.63722683  0.01848942  0.58690799     0.08600
H1148       H  0.67478248  0.42832223  0.54637785     0.06120
H1149       H  0.71856031  0.45795314  0.62136309     0.05970
C1150       C  0.63499827  0.24344148  0.60329543     0.03010
C1151       C  0.65394222  0.23275605  0.58118966    -0.13140
C1152       C  0.65472315  0.25283348  0.55826126     0.00510
C1153       C  0.63115932  0.28133737  0.55641942    -0.11670
C1154       C  0.60773837  0.29011680  0.57785316     0.03000
C1155       C  0.61198108  0.27141309  0.60169862    -0.11090
H1156       H  0.67104253  0.21034182  0.58281532     0.08600
H1157       H  0.63282878  0.29734670  0.53904329     0.06120
H1158       H  0.59879341  0.27832016  0.61990959     0.05970
C1159       C  0.55169487  0.25313593  0.97717382     0.00440
C1160       C  0.53189343  0.23269042  0.99344189     0.00440
O1161       O  0.94274741  0.35069958  0.76065964    -0.74550
O1162       O  0.87311973  0.34327401  0.70625843    -0.74580
O1163       O  0.94492946  0.34785561  0.70649506    -0.74630
O1164       O  0.87155984  0.34609180  0.76008166    -0.74680
O1165       O  0.86756248  0.40311424  0.75864270    -0.74610
O1166       O  0.94014306  0.40491046  0.70428710    -0.74590
O1167       O  0.86875668  0.40025417  0.70512275    -0.74570
O1168       O  0.93840661  0.40783905  0.75879125    -0.74630
Ni1169     Ni  0.90831355  0.34493378  0.73339189     1.25410
Ni1170     Ni  0.90369919  0.40602612  0.73157543     1.25360
C1171       C  0.95047673  0.38047322  0.76956588     0.87630
C1172       C  0.85956296  0.37072882  0.69656942     0.87560
C1173       C  0.95360509  0.37657019  0.69583266     0.87590
C1174       C  0.85831028  0.37434729  0.76886885     0.87760
C1175       C  0.77327660  0.36808517  0.86489792     0.03010
C1176       C  0.78149099  0.38345660  0.88894247    -0.13140
C1177       C  0.76476337  0.37264410  0.91271370     0.00510
C1178       C  0.74059761  0.34498536  0.91156811    -0.11670
C1179       C  0.73106826  0.33025036  0.88715450     0.03000
C1180       C  0.74625472  0.34394977  0.86397439    -0.11090
H1181       H  0.80075651  0.40389474  0.88879533     0.08600
H1182       H  0.72998272  0.33460909  0.92983868     0.06120
H1183       H  0.73913630  0.33462316  0.84475641     0.05970
C1184       C  0.53585348  0.39006677  0.86297662     0.03010
C1185       C  0.56535651  0.41131083  0.86267603    -0.13140
C1186       C  0.59203169  0.40859332  0.88180806     0.00510
C1187       C  0.58647885  0.38462572  0.90281130    -0.11670
C1188       C  0.55472147  0.36482032  0.90456452     0.03000
C1189       C  0.52898767  0.36953604  0.88501032    -0.11090
H1190       H  0.56685387  0.42972961  0.84676895     0.08600
H1191       H  0.60683204  0.38072484  0.91733111     0.06120
H1192       H  0.50400399  0.35598075  0.88617326     0.05970
C1193       C  0.76718436  0.37200892  0.60633627     0.03010
C1194       C  0.73928624  0.39564484  0.60641812    -0.13140
C1195       C  0.72581474  0.40879344  0.58268100     0.00510
C1196       C  0.73833934  0.39419567  0.55871924    -0.11670
C1197       C  0.76198684  0.36579278  0.55866955     0.03000
C1198       C  0.77687810  0.35557634  0.58288832    -0.11090
H1199       H  0.73035723  0.40530457  0.62536702     0.08600
H1200       H  0.73041838  0.40535130  0.54018873     0.06120
H1201       H  0.79679917  0.33545735  0.58371107     0.05970
C1202       C  0.54249210  0.35992229  0.60178643     0.03010
C1203       C  0.56065945  0.32865095  0.59944252    -0.13140
C1204       C  0.58166503  0.32019364  0.57690414     0.00510
C1205       C  0.57663772  0.34063781  0.55400319    -0.11670
C1206       C  0.55476342  0.37045199  0.55478625     0.03000
C1207       C  0.54096545  0.38125122  0.57949012    -0.11090
H1208       H  0.55715865  0.31098212  0.61555707     0.08600
H1209       H  0.58866501  0.33305418  0.53544970     0.06120
H1210       H  0.52782224  0.40594819  0.58121198     0.05970
C1211       C  0.51819866  0.11212240  0.10306742     0.03010
C1212       C  0.49018838  0.08881023  0.10274628    -0.13140
C1213       C  0.47752161  0.07543985  0.07889344     0.00510
C1214       C  0.49044975  0.08971043  0.05499410    -0.11670
C1215       C  0.51445559  0.11755753  0.05505136     0.03000
C1216       C  0.52905374  0.12751222  0.07937106    -0.11090
H1217       H  0.48016390  0.07956236  0.12157136     0.08600
H1218       H  0.98254916  0.07863235  0.03650062     0.06120
H1219       H  0.54954647  0.14680646  0.08002936     0.05970
C1220       C  0.80134565  0.12591517  0.10665985     0.03010
C1221       C  0.82554799  0.15260088  0.10447592    -0.13140
C1222       C  0.83657588  0.16545142  0.07965912     0.00510
C1223       C  0.82421811  0.14878550  0.05671708    -0.11670
C1224       C  0.80354772  0.11834184  0.05866889     0.03000
C1225       C  0.79312145  0.10717809  0.08430337    -0.11090
H1226       H  0.83380860  0.16435856  0.12261396     0.08600
H1227       H  0.82966010  0.16038549  0.03775638     0.06120
H1228       H  0.77712288  0.08451501  0.08736539     0.05970
O1229       O  0.69411285  0.08547638  0.20593382    -0.74550
O1230       O  0.61684842  0.08568879  0.25706502    -0.74580
O1231       O  0.62238586  0.08608100  0.20345471    -0.74630
O1232       O  0.68810720  0.08427850  0.25992924    -0.74680
O1233       O  0.68793303  0.14157625  0.26078691    -0.74610
O1234       O  0.62267405  0.14305417  0.20277140    -0.74590
O1235       O  0.61675908  0.14276939  0.25620316    -0.74570
O1236       O  0.69423869  0.14260050  0.20697307    -0.74630
Ni1237     Ni  0.65541582  0.08334871  0.23152417     1.25410
Ni1238     Ni  0.65550354  0.14452199  0.23166113     1.25360
C1239       C  0.70635863  0.11430574  0.19756693     0.87630
C1240       C  0.60486281  0.11458511  0.26566033     0.87560
C1241       C  0.61163221  0.11442360  0.19353393     0.87590
C1242       C  0.69770372  0.11250892  0.27035373     0.87760
C1243       C  0.51031998  0.11576985  0.35701333     0.03010
C1244       C  0.52067564  0.09841195  0.37983843    -0.13140
C1245       C  0.51171056  0.11124257  0.40521877     0.00510
C1246       C  0.49016038  0.14120528  0.40674525    -0.11670
C1247       C  0.47684298  0.15697338  0.38368636     0.03000
C1248       C  0.48592309  0.14261711  0.35912105    -0.11090
H1249       H  0.53668320  0.07553081  0.37742062     0.08600
H1250       H  0.98465128  0.15291032  0.42569662     0.06120
H1251       H  0.47655920  0.15388073  0.34098315     0.05970
C1252       C  0.78236068  0.09716284  0.36379143     0.03010
C1253       C  0.77617449  0.11808271  0.38560919    -0.13140
C1254       C  0.80090249  0.12011292  0.40596819     0.00510
C1255       C  0.83016401  0.09675903  0.40567808    -0.11670
C1256       C  0.83442899  0.07191455  0.38520064     0.03000
C1257       C  0.80941427  0.07270677  0.36467407    -0.11090
H1258       H  0.75259047  0.13409672  0.38601733     0.08600
H1259       H  0.84944632  0.09851897  0.42112354     0.06120
H1260       H  0.80978957  0.05434808  0.34885250     0.05970
C1261       C  0.54806452  0.48259502  0.48738899     0.00440
C1262       C  0.52358396  0.50539173  0.47746815     0.00440
C1263       C  0.80009103  0.23281391  0.47776359     0.00440
C1264       C  0.77947393  0.25256009  0.49409083     0.00440
C1265       C  0.80411507  0.14149080  0.45321728    -0.09280
C1266       C  0.79590452  0.14765015  0.42654415     0.06920
C1267       C  0.78198062  0.18048955  0.41994297    -0.03040
C1268       C  0.77464428  0.20461566  0.43958807    -0.07490
C1269       C  0.78745535  0.20043335  0.46514064     0.06030
C1270       C  0.80111211  0.16787650  0.47218910    -0.02520
Br1271     Br  0.81701153  0.15881001  0.50720174    -0.02210
H1272       H  0.81419322  0.11660363  0.45917654     0.09950
H1273       H  0.76398696  0.22921575  0.43373465     0.07960
Br1274     Br  0.77981077  0.19806138  0.38438828    -0.02640
C1275       C  0.50320996  0.09278544  0.45309851    -0.09280
C1276       C  0.52399872  0.09260208  0.42964084     0.06920
C1277       C  0.55478062  0.07151148  0.42949073    -0.03040
C1278       C  0.55742904  0.04461667  0.44769341    -0.07490
C1279       C  0.53357730  0.04138817  0.46914618     0.06030
C1280       C  0.50973293  0.06901885  0.47344249    -0.02520
Br1281     Br  0.98721510  0.07637267  0.50703555    -0.02210
H1282       H  0.98126869  0.11058080  0.45563426     0.09950
H1283       H  0.57524567  0.02395518  0.44277102     0.07960
Br1284     Br  0.59502501  0.07862418  0.40621229    -0.02640
C1285       C  0.55287898  0.14341868  0.32664904    -0.09280
C1286       C  0.53267718  0.11424786  0.33269823     0.06920
C1287       C  0.53473929  0.08575009  0.31578851    -0.03040
C1288       C  0.55772391  0.08648497  0.29365243    -0.07490
C1289       C  0.57840184  0.11567554  0.28775397     0.06030
C1290       C  0.57530251  0.14463526  0.30455718    -0.02520
Br1291     Br  0.60256071  0.18610802  0.30059097    -0.02210
H1292       H  0.55160209  0.16548748  0.33963671     0.09950
H1293       H  0.55939742  0.06413724  0.28101347     0.07960
Br1294     Br  0.50560670  0.04626688  0.32132592    -0.02640
C1295       C  0.75625292  0.11257199  0.29231693    -0.09280
C1296       C  0.71916389  0.11092700  0.29437456     0.06920
C1297       C  0.70308540  0.10485987  0.31927489    -0.03040
C1298       C  0.72395224  0.10049080  0.34157158    -0.07490
C1299       C  0.76107960  0.10158030  0.33959540     0.06030
C1300       C  0.77728450  0.10802966  0.31463850    -0.02520
Br1301     Br  0.82782224  0.11237355  0.30990735    -0.02210
H1302       H  0.76890109  0.11704191  0.27325357     0.09950
H1303       H  0.71111104  0.09569906  0.36051881     0.07960
Br1304     Br  0.65275162  0.10169144  0.32410856    -0.02640
C1305       C  0.77954416  0.09266212  0.14637497    -0.09280
C1306       C  0.77903707  0.12266309  0.13092516     0.06920
C1307       C  0.75528840  0.14937954  0.13786594    -0.03040
C1308       C  0.73295896  0.14603746  0.15989902    -0.07490
C1309       C  0.73296341  0.11612237  0.17549904     0.06030
C1310       C  0.75686168  0.08922957  0.16862204    -0.02520
Br1311     Br  0.76082633  0.04794935  0.18913036    -0.02210
H1312       H  0.79759693  0.07191339  0.14111580     0.09950
H1313       H  0.71451875  0.16680463  0.16428558     0.07960
Br1314     Br  0.75005106  0.19022713  0.11679607    -0.02640
C1315       C  0.55225848  0.08339705  0.13811513    -0.09280
C1316       C  0.54028709  0.11435830  0.12710985     0.06920
C1317       C  0.55104858  0.14549222  0.13851866    -0.03040
C1318       C  0.57397016  0.14501857  0.16016375    -0.07490
C1319       C  0.58646412  0.11383193  0.17100385     0.06030
C1320       C  0.57472338  0.08265887  0.15968828    -0.02520
Br1321     Br  0.58776751  0.03737770  0.17162241    -0.02210
H1322       H  0.54451050  0.05920956  0.12945046     0.09950
H1323       H  0.58197163  0.16926374  0.16853684     0.07960
Br1324     Br  0.53385821  0.18908669  0.12621330    -0.02640
C1325       C  0.51205677  0.43644106  0.50929854    -0.09280
C1326       C  0.54050752  0.44490930  0.49234655     0.06920
C1327       C  0.56852941  0.42063053  0.49049416    -0.03040
C1328       C  0.57300917  0.39577800  0.51036220    -0.07490
C1329       C  0.54718682  0.39161395  0.53053653     0.06030
C1330       C  0.51449170  0.40937311  0.52745377    -0.02520
Br1331     Br  0.97170623  0.39769976  0.54662178    -0.02210
H1332       H  0.98895851  0.45249985  0.51021795     0.09950
H1333       H  0.59711324  0.38051005  0.51015908     0.07960
Br1334     Br  0.59970418  0.41906447  0.46037663    -0.02640
C1335       C  0.80593557  0.33118376  0.53205463    -0.09280
C1336       C  0.77182874  0.34625847  0.53406529     0.06920
C1337       C  0.74683916  0.33728508  0.51472176    -0.03040
C1338       C  0.75525732  0.31141567  0.49654475    -0.07490
C1339       C  0.78528620  0.29012252  0.49974964     0.06030
C1340       C  0.81236179  0.30229982  0.51622958    -0.02520
Br1341     Br  0.85685145  0.27944995  0.52140043    -0.02210
H1342       H  0.82674604  0.33941831  0.54504673     0.09950
H1343       H  0.73504151  0.30399403  0.48278479     0.07960
Br1344     Br  0.69825972  0.35293813  0.51454519    -0.02640
C1345       C  0.98763416  0.38205525  0.62500486    -0.09280
C1346       C  0.52213526  0.36829646  0.62676422     0.06920
C1347       C  0.53513974  0.36062673  0.65228623    -0.03040
C1348       C  0.01272718  0.36385033  0.67464343    -0.07490
C1349       C  0.97795788  0.37652771  0.67249718     0.06030
C1350       C  0.96597589  0.38668753  0.64746156    -0.02520
Br1351     Br  0.91929663  0.40492582  0.64234976    -0.02210
H1352       H  0.97675026  0.38817289  0.60594288     0.09950
H1353       H  0.02260679  0.35668713  0.69385499     0.07960
Br1354     Br  0.58366952  0.34763790  0.65840829    -0.02640
C1355       C  0.00798046  0.37347939  0.79239607    -0.09280
C1356       C  0.97216920  0.38328712  0.79341551     0.06920
C1357       C  0.95721245  0.39496952  0.81755167    -0.03040
C1358       C  0.97801424  0.39657836  0.84013326    -0.07490
C1359       C  0.51401613  0.38744911  0.83901174     0.06030
C1360       C  0.52903019  0.37584119  0.81481783    -0.02520
Br1361     Br  0.57789744  0.36186401  0.81139998    -0.02210
H1362       H  0.51968469  0.36424180  0.77404628     0.09950
H1363       H  0.96617415  0.40540835  0.85855446     0.07960
Br1364     Br  0.90834326  0.40829827  0.82112378    -0.02640
C1365       C  0.83812625  0.34567341  0.81008325    -0.09280
C1366       C  0.83453809  0.37352861  0.79261464     0.06920
C1367       C  0.81118209  0.40079216  0.79977357    -0.03040
C1368       C  0.79233352  0.39964598  0.82395509    -0.07490
C1369       C  0.79639368  0.37178822  0.84121844     0.06030
C1370       C  0.81956993  0.34473506  0.83410791    -0.02520
Br1371     Br  0.82694927  0.30579442  0.85679910    -0.02210
H1372       H  0.85627418  0.32476675  0.80543349     0.09950
H1373       H  0.77392917  0.42013791  0.82905900     0.07960
Br1374     Br  0.80242861  0.43935934  0.77706384    -0.02640
C1375       C  0.83085063  0.39914038  0.65876239    -0.09280
C1376       C  0.83438664  0.36937143  0.67425753     0.06920
C1377       C  0.81499578  0.33976010  0.66718217    -0.03040
C1378       C  0.79321493  0.34057281  0.64489413    -0.07490
C1379       C  0.79047392  0.37042015  0.62948421     0.06030
C1380       C  0.80997644  0.39965572  0.63641954    -0.02520
Br1381     Br  0.81088817  0.44064452  0.61514287    -0.02210
H1382       H  0.84537253  0.42218115  0.66347974     0.09950
H1383       H  0.77813234  0.31803504  0.63973263     0.07960
Br1384     Br  0.81539673  0.29816029  0.68757188    -0.02640
C1385       C  0.50829849  0.17385868  0.99374688    -0.09280
C1386       C  0.53813836  0.19475668  0.99767008     0.06920
C1387       C  0.56526500  0.18137105  0.01377061    -0.03040
C1388       C  0.55887705  0.15173483  0.02880754    -0.07490
C1389       C  0.52471340  0.13715200  0.03053092     0.06030
C1390       C  0.49986716  0.14723084  0.01129293    -0.02520
Br1391     Br  0.95142423  0.13212252  0.01065109    -0.02210
H1392       H  0.48811020  0.18220440  0.98015225     0.09950
H1393       H  0.57965941  0.14259477  0.04161064     0.07960
Br1394     Br  0.60980431  0.20328932  0.01944826    -0.02640
C1395       C  0.55834622  0.34376214  0.95201357    -0.09280
C1396       C  0.54830847  0.33801990  0.92569752     0.06920
C1397       C  0.53138711  0.30641097  0.92007061    -0.03040
C1398       C  0.52389245  0.28284625  0.94024580    -0.07490
C1399       C  0.53867855  0.28616689  0.96524945     0.06030
C1400       C  0.55442454  0.31791020  0.97146013    -0.02520
Br1401     Br  0.57173706  0.32646022  0.00610708    -0.02210
H1402       H  0.57047823  0.36786413  0.95730086     0.09950
H1403       H  0.51137666  0.25897326  0.93508066     0.07960
Br1404     Br  0.52482986  0.28929283  0.88486471    -0.02640
C1405       C  0.71880970  0.24121674  0.55101477    -0.09280
C1406       C  0.68539074  0.24689834  0.53970162     0.06920
C1407       C  0.68294700  0.24561921  0.51194572    -0.03040
C1408       C  0.71404906  0.24147108  0.49635345    -0.07490
C1409       C  0.74761300  0.23863469  0.50810281     0.06030
C1410       C  0.74916869  0.23597367  0.53566951    -0.02520
Br1411     Br  0.79280696  0.22880234  0.55387247    -0.02210
H1412       H  0.72180070  0.24190368  0.57221990     0.09950
H1413       H  0.71243016  0.24374328  0.47510176     0.07960
Br1414     Br  0.63847780  0.25003951  0.49437491    -0.02640
C1415       C  0.63773264  0.48599657  0.51814342    -0.09280
C1416       C  0.62664952  0.48122872  0.54432576     0.06920
C1417       C  0.59054734  0.48613431  0.55128212    -0.03040
C1418       C  0.56622783  0.49459735  0.53193590    -0.07490
C1419       C  0.57633111  0.49498562  0.50513960     0.06030
C1420       C  0.61308040  0.49278110  0.49848795    -0.02520
Br1421     Br  0.63272185  0.49870624  0.46368992    -0.02210
H1422       H  0.66571715  0.48393638  0.51292296     0.09950
H1423       H  0.53828186  0.99582462  0.53746585     0.07960
Br1424     Br  0.57181567  0.97662520  0.58606895    -0.02640
C1425       C  0.61571933  0.20070493  0.63619316    -0.09280
C1426       C  0.64030400  0.22551323  0.62848354     0.06920
C1427       C  0.67061884  0.23108847  0.64381106    -0.03040
C1428       C  0.67587573  0.21162986  0.66675161    -0.07490
C1429       C  0.65114013  0.18659948  0.67459354     0.06030
C1430       C  0.62094712  0.18099473  0.65876058    -0.02520
Br1431     Br  0.58712591  0.14482799  0.66489417    -0.02210
H1432       H  0.59287127  0.19586998  0.62404476     0.09950
H1433       H  0.69918383  0.21611568  0.67846667     0.07960
Br1434     Br  0.70526829  0.26501310  0.63407048    -0.02640
C1435       C  0.63992430  0.01438670  0.64286412    -0.09280
C1436       C  0.67364472  0.01023526  0.63083620     0.06920
C1437       C  0.70295130  0.02711390  0.64131226    -0.03040
C1438       C  0.69821371  0.04765492  0.66343986    -0.07490
C1439       C  0.66440851  0.05257285  0.67547682     0.06030
C1440       C  0.63494931  0.03550069  0.66489156    -0.02520
Br1441     Br  0.58743152  0.03956573  0.67897480    -0.02210
H1442       H  0.61720733  0.00127536  0.63489469     0.09950
H1443       H  0.72141615  0.06065366  0.67071375     0.07960
Br1444     Br  0.74952232  0.02558864  0.62513652    -0.02640
C1445       C  0.61185065  0.22914003  0.92210245    -0.09280
C1446       C  0.64233609  0.24805926  0.92866230     0.06920
C1447       C  0.64574932  0.25923195  0.95496707    -0.03040
C1448       C  0.61650583  0.25729427  0.97209935    -0.07490
C1449       C  0.58508043  0.24116783  0.96454755     0.06030
C1450       C  0.58432579  0.22405347  0.94026683    -0.02520
Br1451     Br  0.54510410  0.19626332  0.92971100    -0.02210
H1452       H  0.60797314  0.21962506  0.90236721     0.09950
H1453       H  0.61786095  0.26958581  0.99116220     0.07960
Br1454     Br  0.68909012  0.27657984  0.96921236    -0.02640
C1455       C  0.70181191  0.19481003  0.83644453    -0.09280
C1456       C  0.68578747  0.22709764  0.83863129     0.06920
C1457       C  0.66157469  0.23812206  0.81937198    -0.03040
C1458       C  0.65417827  0.21686501  0.79794618    -0.07490
C1459       C  0.67081509  0.18475142  0.79555533     0.06030
C1460       C  0.69464735  0.17368775  0.81511635    -0.02520
Br1461     Br  0.71706046  0.12925312  0.81450070    -0.02210
H1462       H  0.71947063  0.18577849  0.85167432     0.09950
H1463       H  0.63598551  0.22561111  0.78298324     0.07960
Br1464     Br  0.63706755  0.28132824  0.82217079    -0.02640
C1465       C  0.63892571  0.02762591  0.83159833    -0.09280
C1466       C  0.65754735  0.99663465  0.82893386     0.06920
C1467       C  0.68042661  0.99147419  0.80706028    -0.03040
C1468       C  0.68431973  0.01747689  0.78801936    -0.07490
C1469       C  0.66546346  0.04852186  0.79074191     0.06030
C1470       C  0.64274744  0.05350903  0.81286561    -0.02520
Br1471     Br  0.61764983  0.09589065  0.81944387    -0.02210
H1472       H  0.62216570  0.03209976  0.84888106     0.09950
H1473       H  0.70138223  0.01320389  0.77089307     0.07960
Br1474     Br  0.70664657  0.44951979  0.80280775    -0.02640
C1475       C  0.74150799  0.39734374  0.95565369    -0.09280
C1476       C  0.77042184  0.39177781  0.93809943     0.06920
C1477       C  0.80298555  0.40772615  0.94422362    -0.03160
C1478       C  0.80351084  0.43441282  0.96280581    -0.07490
C1479       C  0.77246910  0.44457712  0.97661573     0.06030
C1480       C  0.74321866  0.42213879  0.97560942    -0.02520
Br1481     Br  0.70398352  0.42625281  0.99999167    -0.02210
H1482       H  0.71667315  0.38400509  0.95309566     0.09950
H1483       H  0.82753774  0.44887550  0.96458501     0.07960
Br1484     Br  0.84768950  0.39397589  0.92856935    -0.02640
C1485       C  0.80211716  0.06550114  0.99440524    -0.09280
C1486       C  0.77800507  0.03982213  0.00238600     0.06920
C1487       C  0.75653558  0.04674190  0.02496673    -0.03040
C1488       C  0.76035608  0.07758278  0.03856497    -0.07490
C1489       C  0.79120069  0.09769029  0.03519243     0.06030
C1490       C  0.81131519  0.09227131  0.01156151    -0.02520
Br1491     Br  0.85492514  0.11515831  0.00274897    -0.02210
H1492       H  0.81822594  0.06160909  0.97685705     0.09950
H1493       H  0.74197102  0.08255169  0.05475988     0.07960
Br1494     Br  0.72960152  0.01247289  0.04385305    -0.02640
C1495       C  0.75522101  0.49246839  0.93439216    -0.09280
C1496       C  0.74129458  0.49661796  0.96009871     0.06920
C1497       C  0.70381501  0.99682375  0.96319223    -0.03040
C1498       C  0.68228426  0.48564599  0.94274737    -0.07490
C1499       C  0.69716127  0.47569136  0.91852754     0.06030
C1500       C  0.73401426  0.48067799  0.91404419    -0.02520
Br1501     Br  0.75808322  0.46826679  0.88164358    -0.02210
H1502       H  0.78376983  0.49292928  0.93114744     0.09950
H1503       H  0.65370581  0.98528764  0.94564410     0.07960
Br1504     Br  0.67914412  0.01535087  0.99300690    -0.02640
C1505       C  0.88159489  0.50575712  0.01654290    -0.09280
C1506       C  0.87559607  0.50299007  0.04387762     0.06920
C1507       C  0.84170172  0.99218546  0.05308674    -0.03040
C1508       C  0.81559428  0.98344749  0.03523829    -0.07490
C1509       C  0.81967249  0.49105803  0.00844230     0.06030
C1510       C  0.85383671  0.50066638  0.99886433    -0.02520
Br1511     Br  0.86368821  0.50952000  0.96212624    -0.02210
H1512       H  0.90752750  0.51317983  0.00895775     0.09950
H1513       H  0.79013149  0.97516601  0.04285484     0.07960
Br1514     Br  0.82613199  0.99527265  0.08939541    -0.02640
C1515       C  0.97301592  0.24028968  0.05175286    -0.09280
C1516       C  0.93938674  0.23536070  0.04078782     0.06920
C1517       C  0.93604953  0.23817260  0.01317104    -0.03040
C1518       C  0.96652689  0.24340194  0.99719776    -0.07490
C1519       C  0.00038855  0.24577694  0.00843245     0.06030
C1520       C  0.00280612  0.24664708  0.03603725    -0.02520
Br1521     Br  0.54686308  0.25361856  0.05356242    -0.02210
H1522       H  0.97640616  0.23870652  0.07290962     0.09950
H1523       H  0.96424369  0.24238267  0.97594089     0.07960
Br1524     Br  0.89105790  0.23439921  0.99632643    -0.02640
C1525       C  0.86097935  0.25947752  0.42371078    -0.09280
C1526       C  0.89133328  0.23948123  0.42954823     0.06920
C1527       C  0.89438672  0.22631996  0.45544032    -0.03040
C1528       C  0.86499179  0.22758015  0.47255962    -0.07490
C1529       C  0.83374750  0.24499735  0.46563715     0.06030
C1530       C  0.83337098  0.26384995  0.44200925    -0.02520
Br1531     Br  0.79444638  0.29314580  0.43235369    -0.02210
H1532       H  0.85717588  0.27047872  0.40437474     0.09950
H1533       H  0.86609052  0.21381655  0.49111096     0.07960
Br1534     Br  0.93749561  0.20726066  0.46927218    -0.02640
C1535       C  0.89707391  0.47722877  0.14338561    -0.09280
C1536       C  0.92934815  0.47579144  0.12904378     0.06920
C1537       C  0.95810422  0.45734227  0.13918412    -0.03040
C1538       C  0.95393926  0.43977307  0.16295113    -0.07490
C1539       C  0.92100660  0.43933955  0.17678217     0.06030
C1540       C  0.89259110  0.45917045  0.16707781    -0.02520
Br1541     Br  0.84754468  0.46347024  0.18515869    -0.02210
H1542       H  0.87520994  0.49250347  0.13606389     0.09950
H1543       H  0.97627961  0.42470184  0.16974604     0.07960
Br1544     Br  0.00260792  0.45291344  0.12032972    -0.02640
C1545       C  0.90268227  0.26836020  0.17431188    -0.09280
C1546       C  0.90826282  0.30380905  0.17208639     0.06920
C1547       C  0.90378480  0.31983095  0.14743905    -0.03040
C1548       C  0.89379870  0.30075017  0.12565427    -0.07490
C1549       C  0.88892770  0.26517819  0.12744718     0.06030
C1550       C  0.89373455  0.24882729  0.15216856    -0.02520
Br1551     Br  0.89081779  0.19998362  0.15681298    -0.02210
H1552       H  0.90526816  0.25586185  0.19331912     0.09950
H1553       H  0.89043436  0.31379959  0.10693612     0.07960
Br1554     Br  0.91065759  0.36783869  0.14201868    -0.02640
C1555       C  0.91605312  0.24866726  0.31830533    -0.09280
C1556       C  0.93419787  0.26407127  0.33922493     0.06920
C1557       C  0.94405256  0.29873194  0.33725966    -0.03040
C1558       C  0.93604707  0.31728359  0.31454802    -0.07490
C1559       C  0.91795810  0.30198498  0.29366709     0.06030
C1560       C  0.90784783  0.26744859  0.29555840    -0.02520
Br1561     Br  0.88449518  0.24486865  0.26719541    -0.02210
H1562       H  0.90797082  0.22206134  0.31981325     0.09950
H1563       H  0.94461081  0.34375418  0.31293005     0.07960
Br1564     Br  0.96987227  0.32136403  0.36445935    -0.02640
C1565       C  0.93000782  0.00482708  0.45252752    -0.09280
C1566       C  0.93815220  0.50416947  0.42546843     0.06920
C1567       C  0.97340951  0.49613264  0.41725065    -0.03040
C1568       C  0.99904572  0.48844171  0.43572430    -0.07490
C1569       C  0.99224642  0.49337930  0.46262786     0.06030
C1570       C  0.95673488  0.00007968  0.47116813    -0.02520
Br1571     Br  0.94222499  0.00319613  0.50757511    -0.02210
H1572       H  0.90296108  0.00980063  0.45918962     0.09950
H1573       H  0.02608037  0.48382902  0.42881289     0.07960
Br1574     Br  0.99066315  0.50075639  0.38151871    -0.02640
C1575       C  0.89915137  0.41798681  0.31731111    -0.09280
C1576       C  0.91366038  0.43260510  0.29429065     0.06920
C1577       C  0.91956955  0.46816527  0.29307672    -0.03040
C1578       C  0.91140573  0.48857360  0.31510530    -0.07490
C1579       C  0.89691234  0.47385791  0.33824071     0.06030
C1580       C  0.89068917  0.43820229  0.33917252    -0.02520
Br1581     Br  0.86866803  0.41601092  0.36913327    -0.02210
H1582       H  0.89326846  0.39077025  0.31795402     0.09950
H1583       H  0.91649427  0.51591370  0.31423266     0.07960
Br1584     Br  0.93675150  0.48984294  0.26136721    -0.02640
C1585       C  0.89119295  0.99536401  0.36188556     0.03010
C1586       C  0.90940347  0.98711834  0.38453230    -0.13140
C1587       C  0.91001668  0.50973543  0.40571518     0.00510
C1588       C  0.88564556  0.53761084  0.40656795    -0.11670
C1589       C  0.86376285  0.54484004  0.38458835     0.03000
C1590       C  0.86989427  0.52486610  0.36147385    -0.11090
H1591       H  0.92603548  0.96427802  0.38468736     0.08600
H1592       H  0.88455810  0.55349528  0.42398685     0.06120
H1593       H  0.85833082  0.53133423  0.34280640     0.05970
O1594       O  0.88697192  0.90433193  0.20762333    -0.74550
O1595       O  0.88512462  0.83328509  0.26110515    -0.74580
O1596       O  0.88594593  0.90196345  0.26115873    -0.74630
O1597       O  0.88313064  0.83527732  0.20708063    -0.74680
O1598       O  0.94240171  0.83400348  0.20433758    -0.74610
O1599       O  0.94526763  0.89952298  0.26154625    -0.74590
O1600       O  0.94440202  0.83094183  0.25829880    -0.74570
O1601       O  0.94606559  0.90272602  0.20839352    -0.74630
Ni1602     Ni  0.88312905  0.86869795  0.23423082     1.25410
Ni1603     Ni  0.94663637  0.86658582  0.23305328     1.25360
C1604       C  0.91740039  0.91497408  0.19913102     0.87630
C1605       C  0.91518958  0.82203924  0.26929881     0.87560
C1606       C  0.91548476  0.91091127  0.27083121     0.87590
C1607       C  0.91181367  0.82480974  0.19595814     0.87760
C1608       C  0.93953659  0.74424343  0.36368046     0.03010
C1609       C  0.95873256  0.71352667  0.36324294    -0.13140
C1610       C  0.95661337  0.69021359  0.38459553     0.00510
C1611       C  0.93414261  0.69859539  0.40615620    -0.11670
C1612       C  0.91734606  0.73111750  0.40788306     0.03000
C1613       C  0.92142650  0.75404268  0.38662262    -0.11090
H1614       H  0.97497717  0.70827021  0.34591554     0.08600
H1615       H  0.92863865  0.67915250  0.42088329     0.06120
H1616       H  0.90870424  0.77901356  0.38696627     0.05970
C1617       C  0.88409402  0.74577809  0.10256355     0.03010
C1618       C  0.90740206  0.75195330  0.08151311    -0.13140
C1619       C  0.90882626  0.73048139  0.05944579     0.00510
C1620       C  0.88520519  0.70241234  0.05821042    -0.11670
C1621       C  0.85958021  0.69696213  0.07863211     0.03000
C1622       C  0.85846354  0.72027648  0.10006291    -0.11090
H1623       H  0.92643642  0.77260451  0.08307404     0.08600
H1624       H  0.88806359  0.68410386  0.04227732     0.06120
H1625       H  0.83842156  0.71829252  0.11551814     0.05970
C1626       C  0.93232224  0.99446865  0.10387244     0.03010
C1627       C  0.90906852  0.98707422  0.08377276    -0.13140
C1628       C  0.90488782  0.50967028  0.06252660     0.00510
C1629       C  0.92753684  0.53856658  0.06026577    -0.11670
C1630       C  0.95338708  0.54486795  0.07968169     0.03000
C1631       C  0.95543159  0.52201882  0.10122806    -0.11090
H1632       H  0.89286824  0.96423423  0.08545701     0.08600
H1633       H  0.92416098  0.55648240  0.04411256     0.06120
H1634       H  0.97465000  0.52552654  0.11656408     0.05970
C1635       C  0.76528298  0.98245398  0.98089434     0.00440
C1636       C  0.78704782  0.50343673  0.99497592     0.00440
C1637       C  0.65695340  0.47336670  0.85174498     0.03010
C1638       C  0.63280124  0.94644878  0.85390931    -0.13140
C1639       C  0.62474494  0.93099416  0.87875108     0.00510
C1640       C  0.64651075  0.93988274  0.90028776    -0.11670
C1641       C  0.67351070  0.96493741  0.89706850     0.03000
C1642       C  0.67642781  0.48281111  0.87335591    -0.11090
H1643       H  0.61946822  0.93921619  0.83610955     0.08600
H1644       H  0.64219486  0.92829531  0.91948879     0.06120
H1645       H  0.69378301  0.50490182  0.87173934     0.05970
C1646       C  0.69032968  0.74659782  0.86305372     0.03010
C1647       C  0.67257727  0.73553174  0.88568370    -0.13140
C1648       C  0.66821550  0.75740179  0.90736403     0.00510
C1649       C  0.68489961  0.78976911  0.90660548    -0.11670
C1650       C  0.70828290  0.79875890  0.88571859     0.03000
C1651       C  0.70991360  0.77685624  0.86348390    -0.11090
H1652       H  0.66030083  0.71046821  0.88547117     0.08600
H1653       H  0.67892493  0.80831969  0.92184600     0.06120
H1654       H  0.72627922  0.78237194  0.84632650     0.05970
O1655       O  0.63558073  0.65351300  0.76472382    -0.74550
O1656       O  0.63248936  0.58690507  0.70833308    -0.74580
O1657       O  0.63571623  0.58467615  0.76159147    -0.74630
O1658       O  0.62932213  0.65573158  0.71130442    -0.74680
O1659       O  0.68811226  0.65620581  0.70556111    -0.74610
O1660       O  0.69497507  0.58589678  0.75950833    -0.74590
O1661       O  0.69153574  0.58769666  0.70658327    -0.74570
O1662       O  0.69455613  0.65505838  0.75935176    -0.74630
Ni1663     Ni  0.63113811  0.62027904  0.73663704     1.25410
Ni1664     Ni  0.69441733  0.62144550  0.73266597     1.25360
C1665       C  0.66632520  0.66394465  0.77181133     0.87630
C1666       C  0.66216139  0.57657835  0.69806741     0.87560
C1667       C  0.66581459  0.57405916  0.76941557     0.87590
C1668       C  0.65682155  0.66573318  0.69857603     0.87760
C1669       C  0.67697783  0.48929375  0.60680863     0.03010
C1670       C  0.65462457  0.49619124  0.58599251    -0.13140
C1671       C  0.65329616  0.97408091  0.56453898     0.00510
C1672       C  0.67655407  0.94559859  0.56298595    -0.11670
C1673       C  0.70085098  0.93903879  0.58338760     0.03000
C1674       C  0.70058657  0.96152521  0.60523556    -0.11090
H1675       H  0.63722446  0.51849045  0.58690310     0.08600
H1676       H  0.67478644  0.92832262  0.54638178     0.06120
H1677       H  0.71856167  0.95795142  0.62136841     0.05970
C1678       C  0.63499803  0.74344078  0.60329457     0.03010
C1679       C  0.65394131  0.73275541  0.58118852    -0.13140
C1680       C  0.65472270  0.75283366  0.55826058     0.00510
C1681       C  0.63115994  0.78133837  0.55641947    -0.11670
C1682       C  0.60773935  0.79011767  0.57785343     0.03000
C1683       C  0.61198140  0.77141284  0.60169840    -0.11090
H1684       H  0.67104114  0.71034076  0.58281370     0.08600
H1685       H  0.63283015  0.79734850  0.53904380     0.06120
H1686       H  0.59879369  0.77831916  0.61990950     0.05970
C1687       C  0.55169508  0.75313005  0.97717262     0.00440
C1688       C  0.53189100  0.73268549  0.99343971     0.00440
O1689       O  0.94275617  0.85069987  0.76066128    -0.74550
O1690       O  0.87313009  0.84327343  0.70625877    -0.74580
O1691       O  0.94493955  0.84785861  0.70649660    -0.74630
O1692       O  0.87156887  0.84608816  0.76008192    -0.74680
O1693       O  0.86756833  0.90311051  0.75864485    -0.74610
O1694       O  0.94014998  0.90491332  0.70429014    -0.74590
O1695       O  0.86876387  0.90025345  0.70512491    -0.74570
O1696       O  0.93841226  0.90783920  0.75879442    -0.74630
Ni1697     Ni  0.90832327  0.84493357  0.73339279     1.25410
Ni1698     Ni  0.90370551  0.90602577  0.73157813     1.25360
C1699       C  0.95048369  0.88047352  0.76956845     0.87630
C1700       C  0.85957182  0.87072810  0.69657061     0.87560
C1701       C  0.95361367  0.87657409  0.69583503     0.87590
C1702       C  0.85831733  0.87434244  0.76886973     0.87760
C1703       C  0.77328333  0.86807230  0.86489804     0.03010
C1704       C  0.78150052  0.88344212  0.88894252    -0.13140
C1705       C  0.76477406  0.87262973  0.91271410     0.00510
C1706       C  0.74060632  0.84497253  0.91156909    -0.11670
C1707       C  0.73107491  0.83023845  0.88715560     0.03000
C1708       C  0.74626059  0.84393779  0.86397512    -0.11090
H1709       H  0.80076714  0.90387935  0.88879507     0.08600
H1710       H  0.72999143  0.83459685  0.92983989     0.06120
H1711       H  0.73914042  0.83461213  0.84475724     0.05970
C1712       C  0.53585810  0.89006954  0.86298050     0.03010
C1713       C  0.56535996  0.91131508  0.86268104    -0.13140
C1714       C  0.59203554  0.90859714  0.88181284     0.00510
C1715       C  0.58648364  0.88462769  0.90281508    -0.11670
C1716       C  0.55472703  0.86482089  0.90456735     0.03000
C1717       C  0.52899312  0.86953710  0.88501332    -0.11090
H1718       H  0.56685613  0.92973515  0.84677482     0.08600
H1719       H  0.60683695  0.88072640  0.91733473     0.06120
H1720       H  0.50401008  0.85598062  0.88617554     0.05970
C1721       C  0.76719040  0.87200945  0.60633891     0.03010
C1722       C  0.73929194  0.89564507  0.60642159    -0.13140
C1723       C  0.72581890  0.90879356  0.58268489     0.00510
C1724       C  0.73834289  0.89419621  0.55872278    -0.11670
C1725       C  0.76199058  0.86579346  0.55867234     0.03000
C1726       C  0.77688309  0.85557701  0.58289068    -0.11090
H1727       H  0.73036370  0.90530432  0.62537079     0.08600
H1728       H  0.73042123  0.90535201  0.54019251     0.06120
H1729       H  0.79680425  0.83545807  0.58371288     0.05970
C1730       C  0.54249778  0.85992666  0.60178786     0.03010
C1731       C  0.56066398  0.82865469  0.59944410    -0.13140
C1732       C  0.58166747  0.82019559  0.57690506     0.00510
C1733       C  0.57663955  0.84063909  0.55400390    -0.11670
C1734       C  0.55476677  0.87045416  0.55478715     0.03000
C1735       C  0.54097054  0.88125476  0.57949115    -0.11090
H1736       H  0.55716376  0.81098686  0.61555930     0.08600
H1737       H  0.58866505  0.83305425  0.53545008     0.06120
H1738       H  0.52782812  0.90595214  0.58121281     0.05970
C1739       C  0.51818252  0.61213079  0.10307111     0.03010
C1740       C  0.49016796  0.58882327  0.10275256    -0.13140
C1741       C  0.47749657  0.57545312  0.07890105     0.00510
C1742       C  0.49042572  0.58971929  0.05500033    -0.11670
C1743       C  0.51443689  0.61756221  0.05505490     0.03000
C1744       C  0.52903843  0.62751677  0.07937347    -0.11090
H1745       H  0.48014347  0.57957876  0.12157860     0.08600
H1746       H  0.98252207  0.57864060  0.03650785     0.06120
H1747       H  0.54953465  0.64680769  0.08002992     0.05970
C1748       C  0.80133957  0.62591929  0.10665643     0.03010
C1749       C  0.82554491  0.65260258  0.10447331    -0.13140
C1750       C  0.83657206  0.66545506  0.07965691     0.00510
C1751       C  0.82421042  0.64879346  0.05671416    -0.11670
C1752       C  0.80353574  0.61835250  0.05866481     0.03000
C1753       C  0.79311073  0.60718642  0.08429892    -0.11090
H1754       H  0.83380851  0.66435723  0.12261177     0.08600
H1755       H  0.82965267  0.66039481  0.03775396     0.06120
H1756       H  0.77710912  0.58452504  0.08735983     0.05970
O1757       O  0.69410761  0.58547794  0.20593033    -0.74550
O1758       O  0.61684369  0.58568915  0.25706201    -0.74580
O1759       O  0.62238037  0.58608312  0.20345166    -0.74630
O1760       O  0.68810269  0.58427851  0.25992591    -0.74680
O1761       O  0.68792876  0.64157622  0.26078450    -0.74610
O1762       O  0.62266877  0.64305631  0.20276977    -0.74590
O1763       O  0.61675482  0.64276973  0.25620127    -0.74570
O1764       O  0.69423372  0.64260198  0.20697061    -0.74630
Ni1765     Ni  0.65541086  0.58334969  0.23152089     1.25410
Ni1766     Ni  0.65549892  0.64452294  0.23165904     1.25360
C1767       C  0.70635352  0.61430747  0.19756391     0.87630
C1768       C  0.60485821  0.61458526  0.26565782     0.87560
C1769       C  0.61162600  0.61442624  0.19353208     0.87590
C1770       C  0.69769936  0.61250863  0.27035088     0.87760
C1771       C  0.51031416  0.61576894  0.35701026     0.03010
C1772       C  0.52066966  0.59841048  0.37983515    -0.13140
C1773       C  0.51170516  0.61124090  0.40521565     0.00510
C1774       C  0.49015556  0.64120401  0.40674248    -0.11670
C1775       C  0.47683807  0.65697261  0.38368379     0.03000
C1776       C  0.48591755  0.64261643  0.35911834    -0.11090
H1777       H  0.53667669  0.57552907  0.37741704     0.08600
H1778       H  0.98464697  0.65290895  0.42569396     0.06120
H1779       H  0.47655357  0.65388039  0.34098060     0.05970
C1780       C  0.78235501  0.59716544  0.36378993     0.03010
C1781       C  0.77616936  0.61808661  0.38560707    -0.13140
C1782       C  0.80089672  0.62011610  0.40596662     0.00510
C1783       C  0.83015720  0.59676105  0.40567740    -0.11670
C1784       C  0.83442161  0.57191580  0.38520059     0.03000
C1785       C  0.80940733  0.57270816  0.36467369    -0.11090
H1786       H  0.75258609  0.63410165  0.38601452     0.08600
H1787       H  0.84943913  0.59852056  0.42112314     0.06120
H1788       H  0.80978190  0.55434852  0.34885277     0.05970
C1789       C  0.54806971  0.98259696  0.48739135     0.00440
C1790       C  0.52358968  0.00539406  0.47747041     0.00440
C1791       C  0.80008988  0.73281634  0.47776282     0.00440
C1792       C  0.77947362  0.75256208  0.49409087     0.00440
C1793       C  0.80410937  0.64149337  0.45321572    -0.09280
C1794       C  0.79589936  0.64765336  0.42654257     0.06920
C1795       C  0.78197730  0.68049347  0.41994142    -0.03040
C1796       C  0.77464257  0.70461993  0.43958657    -0.07490
C1797       C  0.78745317  0.70043664  0.46513920     0.06030
C1798       C  0.80110793  0.66787905  0.47218761    -0.02520
Br1799     Br  0.81700704  0.65881144  0.50720016    -0.02210
H1800       H  0.81418608  0.61660565  0.45917496     0.09950
H1801       H  0.76398675  0.72922065  0.43373320     0.07960
Br1802     Br  0.77980806  0.69806546  0.38438676    -0.02640
C1803       C  0.50320513  0.59278362  0.45309546    -0.09280
C1804       C  0.52399329  0.59259978  0.42963750     0.06920
C1805       C  0.55477443  0.57150810  0.42948686    -0.03040
C1806       C  0.55742230  0.54461304  0.44768936    -0.07490
C1807       C  0.53357143  0.54138549  0.46914275     0.06030
C1808       C  0.50972790  0.56901680  0.47343934    -0.02520
Br1809     Br  0.98721079  0.57637122  0.50703258    -0.02210
H1810       H  0.98126447  0.61057960  0.45563154     0.09950
H1811       H  0.57523779  0.52395078  0.44276651     0.07960
Br1812     Br  0.59501876  0.57861983  0.40620817    -0.02640
C1813       C  0.55287147  0.64341889  0.32664525    -0.09280
C1814       C  0.53267133  0.61424721  0.33269510     0.06920
C1815       C  0.53473571  0.58574861  0.31578630    -0.03040
C1816       C  0.55772058  0.58648378  0.29365037    -0.07490
C1817       C  0.57839685  0.61567526  0.28775127     0.06030
C1818       C  0.57529543  0.64463565  0.30455366    -0.02520
Br1819     Br  0.60255115  0.68610986  0.30058681    -0.02210
H1820       H  0.55159314  0.66548825  0.33963231     0.09950
H1821       H  0.55939572  0.56413545  0.28101211     0.07960
Br1822     Br  0.50560608  0.54626359  0.32132486    -0.02640
C1823       C  0.75624857  0.61256956  0.29231436    -0.09280
C1824       C  0.71915943  0.61092633  0.29437184     0.06920
C1825       C  0.70308045  0.60486202  0.31927243    -0.03040
C1826       C  0.72394688  0.60049411  0.34156950    -0.07490
C1827       C  0.76107432  0.60158206  0.33959353     0.06030
C1828       C  0.77727974  0.60802843  0.31463632    -0.02520
Br1829     Br  0.82781770  0.61237000  0.30990521    -0.02210
H1830       H  0.76889714  0.61703748  0.27325087     0.09950
H1831       H  0.71110525  0.59570449  0.36051689     0.07960
Br1832     Br  0.65274653  0.60169597  0.32410603    -0.02640
C1833       C  0.77953698  0.59266407  0.14637009    -0.09280
C1834       C  0.77903212  0.62266678  0.13092225     0.06920
C1835       C  0.75528587  0.64938433  0.13786501    -0.03040
C1836       C  0.73295645  0.64604153  0.15989804    -0.07490
C1837       C  0.73295852  0.61612465  0.17549609     0.06030
C1838       C  0.75685459  0.58923079  0.16861715    -0.02520
Br1839     Br  0.76081621  0.54794774  0.18912246    -0.02210
H1840       H  0.79758778  0.57191442  0.14110927     0.09950
H1841       H  0.71451805  0.66680969  0.16428603     0.07960
Br1842     Br  0.75005156  0.69023458  0.11679775    -0.02640
C1843       C  0.55224122  0.58340323  0.13811851    -0.09280
C1844       C  0.54027354  0.61436528  0.12711228     0.06920
C1845       C  0.55104113  0.64549857  0.13851880    -0.03040
C1846       C  0.57396511  0.64502347  0.16016244    -0.07490
C1847       C  0.58645557  0.61383600  0.17100339     0.06030
C1848       C  0.57470849  0.58266368  0.15969033    -0.02520
Br1849     Br  0.58774588  0.53738181  0.17162688    -0.02210
H1850       H  0.54448829  0.55921616  0.12945569     0.09950
H1851       H  0.58197127  0.66926822  0.16853370     0.07960
Br1852     Br  0.53385599  0.68909441  0.12621225    -0.02640
C1853       C  0.51206084  0.93644364  0.50930011    -0.09280
C1854       C  0.54051166  0.94491141  0.49234805     0.06920
C1855       C  0.56853279  0.92063195  0.49049506    -0.03040
C1856       C  0.57301218  0.89577905  0.51036282    -0.07490
C1857       C  0.54719004  0.89161563  0.53053738     0.06030
C1858       C  0.51449532  0.90937546  0.52745507    -0.02520
Br1859     Br  0.97171014  0.89770318  0.54662385    -0.02210
H1860       H  0.98896331  0.95250334  0.51022019     0.09950
H1861       H  0.59711583  0.88051046  0.51015945     0.07960
Br1862     Br  0.59970688  0.91906568  0.46037716    -0.02640
C1863       C  0.80593770  0.83118393  0.53205620    -0.09280
C1864       C  0.77183119  0.84625923  0.53406772     0.06920
C1865       C  0.74684076  0.83728670  0.51472454    -0.03040
C1866       C  0.75525796  0.81141786  0.49654684    -0.07490
C1867       C  0.78528662  0.79012413  0.49975073     0.06030
C1868       C  0.81236287  0.80230033  0.51623055    -0.02520
Br1869     Br  0.85685213  0.77944930  0.52140044    -0.02210
H1870       H  0.82674883  0.83941778  0.54504798     0.09950
H1871       H  0.73504160  0.80399706  0.48278705     0.07960
Br1872     Br  0.69826136  0.85294002  0.51454921    -0.02640
C1873       C  0.98764152  0.88206176  0.62500722    -0.09280
C1874       C  0.52214235  0.86830214  0.62676597     0.06920
C1875       C  0.53514756  0.86063227  0.65228773    -0.03040
C1876       C  0.01273566  0.86385585  0.67464524    -0.07490
C1877       C  0.97796641  0.87653356  0.67249957     0.06030
C1878       C  0.96598396  0.88669415  0.64746426    -0.02520
Br1879     Br  0.91930479  0.90493311  0.64235326    -0.02210
H1880       H  0.97675712  0.88817967  0.60594545     0.09950
H1881       H  0.02261561  0.85669204  0.69385658     0.07960
Br1882     Br  0.58367739  0.84764281  0.65840892    -0.02640
C1883       C  0.00798768  0.87348297  0.79239910    -0.09280
C1884       C  0.97217552  0.88328767  0.79341847     0.06920
C1885       C  0.95721744  0.89496795  0.81755481    -0.03040
C1886       C  0.97801879  0.89657785  0.84013658    -0.07490
C1887       C  0.51402152  0.88745168  0.83901518     0.06030
C1888       C  0.52903689  0.87584566  0.81482113    -0.02520
Br1889     Br  0.57790524  0.86187185  0.81140351    -0.02210
H1890       H  0.51969299  0.86424703  0.77404919     0.09950
H1891       H  0.96617761  0.90540611  0.85855791     0.07960
Br1892     Br  0.90834695  0.90829223  0.82112691    -0.02640
C1893       C  0.83813364  0.84566522  0.81008274    -0.09280
C1894       C  0.83454416  0.87352098  0.79261481     0.06920
C1895       C  0.81118563  0.90078247  0.79977372    -0.03040
C1896       C  0.79233650  0.89963417  0.82395489    -0.07490
C1897       C  0.79639869  0.87177630  0.84121787     0.06030
C1898       C  0.81957670  0.84472475  0.83410707    -0.02520
Br1899     Br  0.82695784  0.80578373  0.85679752    -0.02210
H1900       H  0.85628322  0.82475994  0.80543282     0.09950
H1901       H  0.77393046  0.92012464  0.82905892     0.07960
Br1902     Br  0.80242956  0.93934950  0.77706443    -0.02640
C1903       C  0.83085821  0.89914018  0.65876432    -0.09280
C1904       C  0.83439539  0.86937076  0.67425876     0.06920
C1905       C  0.81500496  0.83975930  0.66718312    -0.03040
C1906       C  0.79322322  0.84057241  0.64489554    -0.07490
C1907       C  0.79048089  0.87042030  0.62948637     0.06030
C1908       C  0.80998313  0.89965596  0.63642192    -0.02520
Br1909     Br  0.81089322  0.94064558  0.61514616    -0.02210
H1910       H  0.84537966  0.92218111  0.66348196     0.09950
H1911       H  0.77814091  0.81803453  0.63973388     0.07960
Br1912     Br  0.81540755  0.79815883  0.68757200    -0.02640
C1913       C  0.50828904  0.67385639  0.99374562    -0.09280
C1914       C  0.53813187  0.69475095  0.99766778     0.06920
C1915       C  0.56525657  0.68136274  0.01376888    -0.03040
C1916       C  0.55886384  0.65172917  0.02880787    -0.07490
C1917       C  0.52469761  0.63715205  0.03053275     0.06030
C1918       C  0.49985303  0.64723226  0.01129394    -0.02520
Br1919     Br  0.95140734  0.63213171  0.01065349    -0.02210
H1920       H  0.48810213  0.68220353  0.98015036     0.09950
H1921       H  0.57964501  0.64258718  0.04161123     0.07960
Br1922     Br  0.60979997  0.70327432  0.01944435    -0.02640
C1923       C  0.55835119  0.84375832  0.95201547    -0.09280
C1924       C  0.54831468  0.83801827  0.92569886     0.06920
C1925       C  0.53139408  0.80640961  0.92006992    -0.03040
C1926       C  0.52389780  0.78284353  0.94024382    -0.07490
C1927       C  0.53868184  0.78616231  0.96524831     0.06030
C1928       C  0.55442829  0.81790484  0.97146078    -0.02520
Br1929     Br  0.57173938  0.82645200  0.00610855    -0.02210
H1930       H  0.57048293  0.86785988  0.95730423     0.09950
H1931       H  0.51138209  0.75897110  0.93507714     0.07960
Br1932     Br  0.52483992  0.78929386  0.88486294    -0.02640
C1933       C  0.71880904  0.74121665  0.55101425    -0.09280
C1934       C  0.68539026  0.74689882  0.53970103     0.06920
C1935       C  0.68294666  0.74562089  0.51194510    -0.03040
C1936       C  0.71404880  0.74147335  0.49635290    -0.07490
C1937       C  0.74761259  0.73863648  0.50810241     0.06030
C1938       C  0.74916813  0.73597428  0.53566903    -0.02520
Br1939     Br  0.79280628  0.72880248  0.55387206    -0.02210
H1940       H  0.72179985  0.74190272  0.57221942     0.09950
H1941       H  0.71243012  0.74374647  0.47510125     0.07960
Br1942     Br  0.63847760  0.75004225  0.49437424    -0.02640
C1943       C  0.63773702  0.98599635  0.51814754    -0.09280
C1944       C  0.62665313  0.98122877  0.54432976     0.06920
C1945       C  0.59055078  0.98613483  0.55128549    -0.03040
C1946       C  0.56623195  0.99459815  0.53193883    -0.07490
C1947       C  0.57633603  0.99498649  0.50514268     0.06030
C1948       C  0.61308545  0.99278121  0.49849164    -0.02520
Br1949     Br  0.63272789  0.99870567  0.46369385    -0.02210
H1950       H  0.66572163  0.98393567  0.51292750     0.09950
H1951       H  0.53827787  0.49582337  0.53746338     0.07960
Br1952     Br  0.57181348  0.47662434  0.58606588    -0.02640
C1953       C  0.61572042  0.70070287  0.63619140    -0.09280
C1954       C  0.64030417  0.72551225  0.62848239     0.06920
C1955       C  0.67061847  0.73108849  0.64381027    -0.03040
C1956       C  0.67587567  0.71162983  0.66675073    -0.07490
C1957       C  0.65114083  0.68659851  0.67459213     0.06030
C1958       C  0.62094850  0.68099266  0.65875871    -0.02520
Br1959     Br  0.58712869  0.64482452  0.66489156    -0.02210
H1960       H  0.59287285  0.69586720  0.62404267     0.09950
H1961       H  0.69918327  0.71611635  0.67846616     0.07960
Br1962     Br  0.70526678  0.76501446  0.63407023    -0.02640
C1963       C  0.63992309  0.51438729  0.64285951    -0.09280
C1964       C  0.67364320  0.51023695  0.63083090     0.06920
C1965       C  0.70294962  0.52711654  0.64130624    -0.03040
C1966       C  0.69821222  0.54765741  0.66343395    -0.07490
C1967       C  0.66440738  0.55257381  0.67547185     0.06030
C1968       C  0.63494831  0.53550084  0.66488719    -0.02520
Br1969     Br  0.58743107  0.53956374  0.67897186    -0.02210
H1970       H  0.61720626  0.50127519  0.63489058     0.09950
H1971       H  0.72141445  0.56065697  0.67070734     0.07960
Br1972     Br  0.74952007  0.52559219  0.62512956    -0.02640
C1973       C  0.61185119  0.72913311  0.92210208    -0.09280
C1974       C  0.64233730  0.74805100  0.92866266     0.06920
C1975       C  0.64575032  0.75922262  0.95496772    -0.03040
C1976       C  0.61650638  0.75728520  0.97209966    -0.07490
C1977       C  0.58508048  0.74116020  0.96454711     0.06030
C1978       C  0.58432582  0.72404668  0.94026607    -0.02520
Br1979     Br  0.54510340  0.69625807  0.92970936    -0.02210
H1980       H  0.60797359  0.71961904  0.90236660     0.09950
H1981       H  0.61786151  0.76957589  0.99116284     0.07960
Br1982     Br  0.68909138  0.77656852  0.96921395    -0.02640
C1983       C  0.70181108  0.69480083  0.83644452    -0.09280
C1984       C  0.68578838  0.72708918  0.83863175     0.06920
C1985       C  0.66157654  0.73811556  0.81937241    -0.03040
C1986       C  0.65417948  0.71685970  0.79794605    -0.07490
C1987       C  0.67081468  0.68474539  0.79555470     0.06030
C1988       C  0.69464585  0.67367974  0.81511580    -0.02520
Br1989     Br  0.71705676  0.62924411  0.81449932    -0.02210
H1990       H  0.71946908  0.68576787  0.85167430     0.09950
H1991       H  0.63598759  0.72560731  0.78298303     0.07960
Br1992     Br  0.63707166  0.78132294  0.82217181    -0.02640
C1993       C  0.63892032  0.52761844  0.83159178    -0.09280
C1994       C  0.65754338  0.49662793  0.82892762     0.06920
C1995       C  0.68042390  0.49146854  0.80705464    -0.03040
C1996       C  0.68431744  0.51747186  0.78801425    -0.07490
C1997       C  0.66546028  0.54851634  0.79073679     0.06030
C1998       C  0.64274256  0.55350220  0.81285972    -0.02520
Br1999     Br  0.61764362  0.59588307  0.81943823    -0.02210
H2000       H  0.62215924  0.53209147  0.84887408     0.09950
H2001       H  0.70138113  0.51319980  0.77088847     0.07960
Br2002     Br  0.70664819  0.94952477  0.80281326    -0.02640
C2003       C  0.74152255  0.89733331  0.95565351    -0.09280
C2004       C  0.77043554  0.89176311  0.93809940     0.06920
C2005       C  0.80300105  0.90770909  0.94422206    -0.03160
C2006       C  0.80352947  0.93439779  0.96280238    -0.07490
C2007       C  0.77248894  0.94456591  0.97661215     0.06030
C2008       C  0.74323586  0.92213058  0.97560741    -0.02520
Br2009     Br  0.70399944  0.92625369  0.99998776    -0.02210
H2010       H  0.71668623  0.88399695  0.95309617     0.09950
H2011       H  0.82755765  0.94885927  0.96457972     0.07960
Br2012     Br  0.84770293  0.89395356  0.92856719    -0.02640
C2013       C  0.80209183  0.56551393  0.99440121    -0.09280
C2014       C  0.77797853  0.53983721  0.00238467     0.06920
C2015       C  0.75650936  0.54676237  0.02496467    -0.03040
C2016       C  0.76033408  0.57760419  0.03856089    -0.07490
C2017       C  0.79118246  0.59770598  0.03518776     0.06030
C2018       C  0.81129453  0.59228394  0.01155625    -0.02520
Br2019     Br  0.85490621  0.61516651  0.00274147    -0.02210
H2020       H  0.81819852  0.56161933  0.97685236     0.09950
H2021       H  0.74195062  0.58257697  0.05475616     0.07960
Br2022     Br  0.72957196  0.51249931  0.04385432    -0.02640
C2023       C  0.75524040  0.99245367  0.93438813    -0.09280
C2024       C  0.74131874  0.99660975  0.96009548     0.06920
C2025       C  0.70379048  0.49682326  0.96319266    -0.03040
C2026       C  0.68230315  0.98564704  0.94274991    -0.07490
C2027       C  0.69717446  0.97568621  0.91852975     0.06030
C2028       C  0.73402779  0.98066528  0.91404287    -0.02520
Br2029     Br  0.75808789  0.96824815  0.88164012    -0.02210
H2030       H  0.78378887  0.99290866  0.93114085     0.09950
H2031       H  0.65368673  0.48527957  0.94563954     0.07960
Br2032     Br  0.67911068  0.51533348  0.99300964    -0.02640
C2033       C  0.88162373  0.00573996  0.01653271    -0.09280
C2034       C  0.87562827  0.00296951  0.04386766     0.06920
C2035       C  0.84166833  0.49220789  0.05309534    -0.03040
C2036       C  0.81556305  0.48346752  0.03524577    -0.07490
C2037       C  0.81970022  0.99104210  0.00843533     0.06030
C2038       C  0.85386323  0.00065116  0.99885568    -0.02520
Br2039     Br  0.86370900  0.00950781  0.96211729    -0.02210
H2040       H  0.90755531  0.01316397  0.00894633     0.09950
H2041       H  0.79009926  0.47518728  0.04286130     0.07960
Br2042     Br  0.82609516  0.49530028  0.08940302    -0.02640
C2043       C  0.97301602  0.74028724  0.05175139    -0.09280
C2044       C  0.93938620  0.73536081  0.04078671     0.06920
C2045       C  0.93604833  0.73817459  0.01317009    -0.03040
C2046       C  0.96652560  0.74340289  0.99719650    -0.07490
C2047       C  0.00038779  0.74577483  0.00843073     0.06030
C2048       C  0.00280620  0.74664362  0.03603552    -0.02520
Br2049     Br  0.54686436  0.75361050  0.05356020    -0.02210
H2050       H  0.97640680  0.73870262  0.07290803     0.09950
H2051       H  0.96424175  0.74238475  0.97593963     0.07960
Br2052     Br  0.89105591  0.73440483  0.99632610    -0.02640
C2053       C  0.86097828  0.75947974  0.42371039    -0.09280
C2054       C  0.89133153  0.73948209  0.42954721     0.06920
C2055       C  0.89438496  0.72632009  0.45543908    -0.03040
C2056       C  0.86499035  0.72758082  0.47255864    -0.07490
C2057       C  0.83374662  0.74499935  0.46563671     0.06030
C2058       C  0.83337048  0.76385278  0.44200923    -0.02520
Br2059     Br  0.79444684  0.79315045  0.43235468    -0.02210
H2060       H  0.85717476  0.77048156  0.40437456     0.09950
H2061       H  0.86608879  0.71381654  0.49110969     0.07960
Br2062     Br  0.93749344  0.70725906  0.46927032    -0.02640
C2063       C  0.89710630  0.97722085  0.14337526    -0.09280
C2064       C  0.92938045  0.97577583  0.12903380     0.06920
C2065       C  0.95813385  0.95732557  0.13917694    -0.03040
C2066       C  0.95396574  0.93976156  0.16294603    -0.07490
C2067       C  0.92103251  0.93933509  0.17677658     0.06030
C2068       C  0.89262028  0.95916808  0.16706957    -0.02520
Br2069     Br  0.84757420  0.96347796  0.18514953    -0.02210
H2070       H  0.87524499  0.99249753  0.13605170     0.09950
H2071       H  0.97630371  0.92468875  0.16974312     0.07960
Br2072     Br  0.00263789  0.95288951  0.12032410    -0.02640
C2073       C  0.90268942  0.76835947  0.17431142    -0.09280
C2074       C  0.90826886  0.80380853  0.17208564     0.06920
C2075       C  0.90378784  0.81983023  0.14743851    -0.03040
C2076       C  0.89380068  0.80074913  0.12565425    -0.07490
C2077       C  0.88893091  0.76517711  0.12744739     0.06030
C2078       C  0.89373991  0.74882635  0.15216855    -0.02520
Br2079     Br  0.89082281  0.69998271  0.15681294    -0.02210
H2080       H  0.90527714  0.75586123  0.19331854     0.09950
H2081       H  0.89043452  0.81379837  0.10693621     0.07960
Br2082     Br  0.91065787  0.86783813  0.14201746    -0.02640
C2083       C  0.91605072  0.74866940  0.31830342    -0.09280
C2084       C  0.93419474  0.76407268  0.33922371     0.06920
C2085       C  0.94404889  0.79873362  0.33725949    -0.03040
C2086       C  0.93604373  0.81728615  0.31454823    -0.07490
C2087       C  0.91795572  0.80198824  0.29366655     0.06030
C2088       C  0.90784603  0.76745159  0.29555677    -0.02520
Br2089     Br  0.88449546  0.74487242  0.26719245    -0.02210
H2090       H  0.90796884  0.72206329  0.31981047     0.09950
H2091       H  0.94460801  0.84375661  0.31293079     0.07960
Br2092     Br  0.96986836  0.82136483  0.36445976    -0.02640
C2093       C  0.93000050  0.50482629  0.45252883    -0.09280
C2094       C  0.93816122  0.00417022  0.42546736     0.06920
C2095       C  0.97341920  0.99613404  0.41725083    -0.03040
C2096       C  0.99905445  0.98844419  0.43572547    -0.07490
C2097       C  0.99225326  0.99338182  0.46262877     0.06030
C2098       C  0.95672871  0.50007798  0.47116848    -0.02520
Br2099     Br  0.94222139  0.50319420  0.50757601    -0.02210
H2100       H  0.90295426  0.50980036  0.45919186     0.09950
H2101       H  0.02608965  0.98383208  0.42881505     0.07960
Br2102     Br  0.99067519  0.00075744  0.38151949    -0.02640
C2103       C  0.89916722  0.91798883  0.31730853    -0.09280
C2104       C  0.91367435  0.93260797  0.29428776     0.06920
C2105       C  0.91957973  0.96816877  0.29307350    -0.03040
C2106       C  0.91141489  0.98857670  0.31510219    -0.07490
C2107       C  0.89692373  0.97386006  0.33823802     0.06030
C2108       C  0.89070370  0.93820387  0.33916997    -0.02520
Br2109     Br  0.86868459  0.91601085  0.36913081    -0.02210
H2110       H  0.89328614  0.89077191  0.31795155     0.09950
H2111       H  0.91650089  0.01591724  0.31422928     0.07960
Br2112     Br  0.93675820  0.98984754  0.26136344    -0.02640
loop_ 
_geom_bond_atom_site_label_1 
_geom_bond_atom_site_label_2 
_geom_bond_distance 
_geom_bond_site_symmetry_2 
_ccdc_geom_bond_type 
C1            C2   1.383       .  A
C1          C534   1.397       .  A
C1          C523   1.476       .  S
C2          C531   1.391       .  A
C2            H7   1.084       .  S
C3            C4   1.417       .  A
C3          C530   1.391   1_545  A
C3         C1038   1.484       .  S
C4            C5   1.423       .  A
C4            H8   1.080       .  S
C5            C6   1.423       .  A
C5          C200   1.522       .  S
C6          C529   1.397   1_545  A
C6            H9   1.077       .  S
O10         Ni18   1.936       .  S
O10          C20   1.287       .  A
O11         Ni18   1.937       .  S
O11          C21   1.286       .  A
O12         Ni18   1.889       .  S
O12          C22   1.274       .  A
O13         Ni18   1.897       .  S
O13          C23   1.274       .  A
O14         Ni19   1.943       .  S
O14          C23   1.287       .  A
O15         Ni19   1.934       .  S
O15          C22   1.285       .  A
O16         Ni19   1.886       .  S
O16          C21   1.273       .  A
O17         Ni19   1.879       .  S
O17          C20   1.273       .  A
Ni18        Ni19   2.390       .  S
C20         C483   1.480       .  S
C21         C503   1.464       .  S
C22         C520   1.461       .  S
C23         C490   1.471       .  S
C24          C25   1.393       .  A
C24          C29   1.391       .  A
C24         C500   1.474       .  S
C25          C26   1.412       .  A
C25          H30   1.081       .  S
C26          C27   1.408       .  A
C26        C1247   1.498       .  S
C27          C28   1.414       .  A
C27          H31   1.080       .  S
C28          C29   1.404       .  A
C28         C470   1.494       .  S
C29          H32   1.081       .  S
C33          C34   1.390       .  A
C33          C38   1.396       .  A
C33         C493   1.487       .  S
C34          C35   1.399       .  A
C34          H39   1.084       .  S
C35          C36   1.415       .  A
C35         C460   1.489       .  S
C36          C37   1.418       .  A
C36          H40   1.082       .  S
C37          C38   1.418       .  A
C37         C166   1.506       .  S
C38          H41   1.081       .  S
C42          C43   1.387       .  A
C42         C575   1.390       .  A
C42         C480   1.469       .  S
C43         C572   1.399       .  A
C43          H48   1.084       .  S
C44          C45   1.419       .  A
C44         C571   1.399   1_545  A
C44         C978   1.489       .  S
C45          C46   1.419       .  A
C45          H49   1.083       .  S
C46          C47   1.409       .  A
C46        C1213   1.501       .  S
C47         C570   1.390   1_545  A
C47          H50   1.081       .  S
C51         C423   1.514       .  S
C51         C440   1.501       .  S
C51         C580   1.371       .  D
C52         C430   1.503   1_556  S
C52         C981   1.492   1_546  S
C52         C579   1.371   1_545  D
C53          C58   1.381       .  A
C53         C582   1.394       .  A
C53         C410   1.467       .  S
C54          C55   1.422       .  A
C54         C581   1.394       .  A
C54          H59   1.079       .  S
C55          C56   1.421       .  A
C55         C130   1.518       .  S
C56          C57   1.420       .  A
C56          H60   1.082       .  S
C57         C586   1.390       .  A
C57         C443   1.481       .  S
C58         C585   1.390       .  A
C58          H61   1.085   1_565  S
C62          C63   1.386       .  A
C62          C67   1.394       .  A
C62         C400   1.468       .  S
C63          C64   1.399       .  A
C63          H68   1.082       .  S
C64          C65   1.411       .  A
C64         C390   1.487       .  S
C65          C66   1.409       .  A
C65          H69   1.079       .  S
C66          C67   1.416       .  A
C66         C123   1.503       .  S
C67          H70   1.079       .  S
O71         Ni79   1.937       .  S
O71          C81   1.286       .  A
O72         Ni79   1.939       .  S
O72          C82   1.286       .  A
O73         Ni79   1.883       .  S
O73          C83   1.273       .  A
O74         Ni79   1.884       .  S
O74          C84   1.272       .  A
O75         Ni80   1.942       .  S
O75          C84   1.288       .  A
O76         Ni80   1.938       .  S
O76          C83   1.286       .  A
O77         Ni80   1.872       .  S
O77          C82   1.273       .  A
O78         Ni80   1.885       .  S
O78          C81   1.273       .  A
Ni79        Ni80   2.387       .  S
C81         C403   1.466       .  S
C82         C383   1.482       .  S
C83         C413   1.466       .  S
C84         C373   1.478       .  S
C85          C86   1.386       .  A
C85         C618   1.397       .  A
C85         C380   1.471   1_565  S
C86         C615   1.391       .  A
C86          H91   1.085   1_565  S
C87          C88   1.410       .  A
C87         C614   1.391       .  A
C87         C360   1.471       .  S
C88          C89   1.414       .  A
C88          H92   1.082       .  S
C89          C90   1.414       .  A
C89         C139   1.502       .  S
C90         C613   1.397       .  A
C90          H93   1.079       .  S
C94          C95   1.381       .  A
C94          C99   1.390       .  A
C94         C370   1.469       .  S
C95          C96   1.399       .  A
C95         H100   1.085       .  S
C96          C97   1.420       .  A
C96         C350   1.493       .  S
C97          C98   1.428       .  A
C97         H101   1.079       .  S
C98          C99   1.420       .  A
C98         C148   1.524       .  S
C99         H102   1.074       .  S
C103        C343   1.502       .  S
C103        C393   1.474       .  S
C103        C104   1.360       .  D
C104        C330   1.509       .  S
C104       C1519   1.485   1_556  S
O105       Ni113   1.926       .  S
O105        C115   1.282       .  A
O106       Ni113   1.928       .  S
O106        C116   1.282       .  A
O107       Ni113   1.925       .  S
O107        C117   1.282       .  A
O108       Ni113   1.918       .  S
O108        C118   1.283       .  A
O109       Ni114   1.918       .  S
O109        C118   1.280       .  A
O110       Ni114   1.931       .  S
O110        C117   1.283       .  A
O111       Ni114   1.909       .  S
O111        C116   1.282       .  A
O112       Ni114   1.918       .  S
O112        C115   1.280       .  A
Ni113      Ni114   2.386       .  S
C115        C300   1.475       .  S
C116        C320   1.489       .  S
C117        C293   1.483       .  S
C118        C310   1.487       .  S
C119        C120   1.400       .  A
C119        C124   1.390       .  A
C119        C313   1.477       .  S
C120        C121   1.414       .  A
C120        H125   1.080       .  S
C121        C122   1.416       .  A
C121        C420   1.508       .  S
C122        C123   1.418       .  A
C122        H126   1.080       .  S
C123        C124   1.403       .  A
C124        H127   1.079       .  S
C128        C129   1.388       .  A
C128        C133   1.393       .  A
C128        C303   1.483       .  S
C129        C130   1.411       .  A
C129        H134   1.078       .  S
C130        C131   1.427       .  A
C131        C132   1.427       .  A
C131        H135   1.081       .  S
C132        C133   1.409       .  A
C132        C340   1.510       .  S
C133        H136   1.082       .  S
C137        C138   1.392       .  A
C137        C142   1.393       .  A
C137        C323   1.478       .  S
C138        C139   1.408       .  A
C138        H143   1.080       .  S
C139        C140   1.415       .  A
C140        C141   1.415       .  A
C140        H144   1.080       .  S
C141        C142   1.413       .  A
C141        C280   1.502       .  S
C142        H145   1.082       .  S
C146        C147   1.397       .  A
C146        C151   1.402       .  A
C146        C290   1.504       .  S
C147        C148   1.416       .  A
C147        H152   1.073       .  S
C148        C149   1.420       .  A
C149        C150   1.419       .  A
C149        H153   1.078       .  S
C150        C151   1.411       .  A
C150        C273   1.508       .  S
C151        H154   1.082       .  S
C155        C156   1.395   1_455  A
C155        C160   1.396       .  A
C155        C260   1.490       .  S
C156        C157   1.410       .  A
C156        H161   1.081       .  S
C157        C158   1.411       .  A
C157       C1102   1.501       .  S
C158        C159   1.415   1_655  A
C158       H1218   1.080       .  S
C159        C160   1.415       .  A
C159        C333   1.502       .  S
C160        H163   1.081       .  S
H162       C1214   1.080       .  S
C164        C165   1.389       .  A
C164        C169   1.390       .  A
C164        C250   1.482       .  S
C165        C166   1.409       .  A
C165        H170   1.080       .  S
C166        C167   1.420       .  A
C167        C168   1.424       .  A
C167        H171   1.078       .  S
C168        C169   1.418       .  A
C168        C433   1.519       .  S
C169        H172   1.080       .  S
O173       Ni181   1.935       .  S
O173        C183   1.284       .  A
O174       Ni181   1.930       .  S
O174        C184   1.284       .  A
O175       Ni181   1.908       .  S
O175        C185   1.278       .  A
O176       Ni181   1.911       .  S
O176        C186   1.278       .  A
O177       Ni182   1.935       .  S
O177        C186   1.284       .  A
O178       Ni182   1.934       .  S
O178        C185   1.285       .  A
O179       Ni182   1.901       .  S
O179        C184   1.277       .  A
O180       Ni182   1.905       .  S
O180        C183   1.280       .  A
Ni181      Ni182   2.382       .  S
C183        C253   1.490       .  S
C184        C233   1.486       .  S
C185        C263   1.497       .  S
C186        C240   1.474       .  S
C187        C188   1.398       .  A
C187        C192   1.390   1_455  A
C187        C230   1.481       .  S
C188        C189   1.416       .  A
C188        H193   1.078       .  S
C189        C190   1.418   1_455  A
C189        C220   1.511       .  S
C190        C191   1.417       .  A
C190       H1250   1.081       .  S
C191        C192   1.402       .  A
C191       C1082   1.498       .  S
C192        H195   1.081       .  S
H194       C1246   1.081       .  S
C196        C197   1.391       .  A
C196        C201   1.391       .  A
C196        C243   1.485       .  S
C197        C198   1.404       .  A
C197        H202   1.081       .  S
C198        C199   1.424       .  A
C198        C210   1.507       .  S
C199        C200   1.427       .  A
C199        H203   1.079       .  S
C200        C201   1.415       .  A
C201        H204   1.076       .  S
C205        C270   1.516       .  S
C205        C363   1.489       .  S
C205        C206   1.376       .  D
C206        C751   1.510       .  S
C206       C1569   1.488   1_455  S
C207        C213   1.499       .  S
C207        C473   1.478       .  S
C207        C208   1.361       .  D
C208        C283   1.509       .  S
C208        C353   1.487       .  S
C209        C210   1.412       .  A
C209        C214   1.412       .  A
C209        H216   1.082       .  S
C210        C211   1.420       .  A
C211        C212   1.394       .  A
C211       Br218   1.929       .  S
C212        C213   1.399       .  A
C212        H217   1.079       .  S
C213        C214   1.412       .  A
C214       Br215   1.914       .  S
C219        C220   1.412       .  A
C219        C224   1.407       .  A
C219       H1282   1.081   1_455  S
C220        C221   1.416       .  A
C221        C222   1.398       .  A
C221       Br228   1.924       .  S
C222        C223   1.403       .  A
C222        H227   1.071       .  S
C223        C224   1.412       .  A
C223        C734   1.510       .  S
C224      Br1281   1.910   1_455  S
Br225      C1280   1.910       .  S
H226       C1275   1.081       .  S
C229        C230   1.401       .  A
C229        C234   1.391       .  A
C229        H236   1.084       .  S
C230        C231   1.405       .  A
C231        C232   1.405       .  A
C231       Br238   1.911       .  S
C232        C233   1.410       .  A
C232        H237   1.083       .  S
C233        C234   1.418       .  A
C234       Br235   1.926       .  S
C239        C240   1.399       .  A
C239        C244   1.402       .  A
C239        H246   1.084       .  S
C240        C241   1.410       .  A
C241        C242   1.397       .  A
C241       Br248   1.910       .  S
C242        C243   1.400       .  A
C242        H247   1.084       .  S
C243        C244   1.417       .  A
C244       Br245   1.921       .  S
C249        C250   1.404       .  A
C249        C254   1.409       .  A
C249        H256   1.083       .  S
C250        C251   1.409       .  A
C251        C252   1.392       .  A
C251       Br258   1.924       .  S
C252        C253   1.406       .  A
C252        H257   1.083       .  S
C253        C254   1.416       .  A
C254       Br255   1.918       .  S
C259        C260   1.402       .  A
C259        C264   1.394       .  A
C259        H266   1.084       .  S
C260        C261   1.409       .  A
C261        C262   1.408       .  A
C261       Br268   1.919       .  S
C262        C263   1.413       .  A
C262        H267   1.083       .  S
C263        C264   1.420       .  A
C264       Br265   1.926       .  S
C269        C270   1.401       .  A
C269        C274   1.401       .  A
C269       H1332   1.068   1_455  S
C270        C271   1.414       .  A
C271        C272   1.406       .  A
C271       Br278   1.910       .  S
C272        C273   1.408       .  A
C272        H277   1.081       .  S
C273        C274   1.418       .  A
C274      Br1331   1.922   1_455  S
Br275      C1330   1.922       .  S
H276       C1325   1.068       .  S
C279        C280   1.410       .  A
C279        C284   1.401       .  A
C279        H286   1.083       .  S
C280        C281   1.416       .  A
C281        C282   1.398       .  A
C281       Br288   1.924       .  S
C282        C283   1.409       .  A
C282        H287   1.082       .  S
C283        C284   1.414       .  A
C284       Br285   1.913       .  S
C289        C294   1.400       .  A
C289       C1346   1.406       .  A
C289        H296   1.081       .  S
C290        C291   1.421       .  A
C290       C1345   1.406   1_455  A
C291       C1348   1.406       .  A
C291       Br298   1.922       .  S
C292        C293   1.401       .  A
C292       C1347   1.406       .  A
C292        H297   1.084       .  S
C293        C294   1.409       .  A
C294       Br295   1.912       .  S
C299        C300   1.398       .  A
C299       C1360   1.400       .  A
C299       H1362   1.084       .  S
C300        C301   1.413       .  A
C301        C302   1.400       .  A
C301       Br308   1.913       .  S
C302       C1359   1.399       .  A
C302        H307   1.084       .  S
C303        C304   1.415       .  A
C303       C1358   1.399   1_455  A
C304       C1355   1.400       .  A
C304       Br305   1.919       .  S
H306       C1355   1.084       .  S
C309        C310   1.405       .  A
C309        C314   1.393       .  A
C309        H316   1.083       .  S
C310        C311   1.418       .  A
C311        C312   1.406       .  A
C311       Br318   1.920       .  S
C312        C313   1.401       .  A
C312        H317   1.082       .  S
C313        C314   1.407       .  A
C314       Br315   1.922       .  S
C319        C320   1.405       .  A
C319        C324   1.390       .  A
C319        H326   1.083       .  S
C320        C321   1.419       .  A
C321        C322   1.408       .  A
C321       Br328   1.919       .  S
C322        C323   1.402       .  A
C322        H327   1.083       .  S
C323        C324   1.407       .  A
C324       Br325   1.923       .  S
C329        C330   1.408       .  A
C329        C334   1.398   1_456  A
C329        H336   1.082   1_455  S
C330        C331   1.414   1_556  A
C331        C332   1.401       .  A
C331       Br338   1.912       .  S
C332        C333   1.410       .  A
C332        H337   1.083       .  S
C333        C334   1.416   1_455  A
C334      Br1391   1.920       .  S
Br335      C1390   1.920       .  S
C339        C340   1.412       .  A
C339        C344   1.413       .  A
C339        H346   1.083       .  S
C340        C341   1.421       .  A
C341        C342   1.398       .  A
C341       Br348   1.927       .  S
C342        C343   1.400       .  A
C342        H347   1.080       .  S
C343        C344   1.413       .  A
C344       Br345   1.915   1_556  S
C349        C350   1.407       .  A
C349        C354   1.385       .  A
C349        H356   1.083       .  S
C350        C351   1.413       .  A
C351        C352   1.409       .  A
C351       Br358   1.916       .  S
C352        C353   1.409       .  A
C352        H357   1.083       .  S
C353        C354   1.403       .  A
C354       Br355   1.916       .  S
C359        C360   1.396       .  A
C359        C364   1.397       .  A
C359        H366   1.084       .  S
C360        C361   1.409       .  A
C361        C362   1.391       .  A
C361       Br896   1.923       .  S
C362        C363   1.404       .  A
C362        H895   1.084       .  S
C363        C364   1.420       .  A
C364       Br365   1.914       .  S
H367        C890   1.084       .  S
Br368       C889   1.923       .  S
C369        C370   1.392       .  A
C369        C374   1.392       .  A
C369        H376   1.084       .  S
C370        C371   1.410       .  A
C371        C372   1.402       .  A
C371       Br378   1.919       .  S
C372        C373   1.403       .  A
C372        H377   1.083       .  S
C373        C374   1.421       .  A
C374       Br375   1.925       .  S
C379        C380   1.407       .  A
C379        C384   1.398       .  A
C379        H386   1.083       .  S
C380        C381   1.401       .  A
C381        C382   1.388       .  A
C381       Br388   1.922       .  S
C382        C383   1.413       .  A
C382        H387   1.083       .  S
C383        C384   1.411       .  A
C384       Br385   1.919       .  S
C389        C390   1.412       .  A
C389        C394   1.388       .  A
C389        H396   1.080       .  S
C390        C391   1.412       .  A
C391        C392   1.392       .  A
C391       Br398   1.922       .  S
C392        C393   1.402       .  A
C392        H397   1.082       .  S
C393        C394   1.402       .  A
C394       Br395   1.920       .  S
C399        C400   1.395       .  A
C399        C404   1.392       .  A
C399        H406   1.084       .  S
C400        C401   1.411       .  A
C401        C402   1.400       .  A
C401       Br408   1.918       .  S
C402        C403   1.400       .  A
C402        H407   1.083       .  S
C403        C404   1.413       .  A
C404       Br405   1.920       .  S
C409        C410   1.397   1_545  A
C409        C414   1.389       .  A
C409        H416   1.084       .  S
C410        C411   1.406       .  A
C411        C412   1.403   1_565  A
C411       Br946   1.914       .  S
C412        C413   1.404       .  A
C412        H417   1.083       .  S
C413        C414   1.411       .  A
C414       Br415   1.923       .  S
Br418       C939   1.914       .  S
C419        C420   1.409       .  A
C419        C424   1.403       .  A
C419        H426   1.082       .  S
C420        C421   1.417       .  A
C421        C422   1.405       .  A
C421       Br428   1.921       .  S
C422        C423   1.406       .  A
C422        H427   1.073       .  S
C423        C424   1.411       .  A
C424       Br425   1.915       .  S
C429        C430   1.408   1_556  A
C429        C434   1.408   1_556  A
C429        H436   1.078       .  S
C430        C431   1.415       .  A
C431        C432   1.396       .  A
C431       Br438   1.923       .  S
C432        C433   1.412       .  A
C432        H437   1.081       .  S
C433        C434   1.421       .  A
C434       Br435   1.917       .  S
C439        C440   1.405       .  A
C439        C444   1.396       .  A
C439        H446   1.084       .  S
C440        C969   1.417       .  A
C441        C968   1.417       .  A
C441        C970   1.398       .  A
C441       Br448   1.901   1_565  S
C442        C443   1.395       .  A
C442        C969   1.398       .  A
C442        H975   1.084       .  S
C443        C444   1.416       .  A
C444       Br445   1.923       .  S
H447        C970   1.084       .  S
C449        C450   1.404       .  A
C449        C454   1.404   1_554  A
C449        H456   1.083       .  S
C450        C979   1.417       .  A
C450        C572   1.489       .  S
C451        C452   1.392       .  A
C451        C978   1.417   1_565  A
C451       Br458   1.925       .  S
C452        C981   1.396       .  A
C452        H457   1.077       .  S
C453        C454   1.418   1_554  A
C453        C980   1.396       .  A
C453        C580   1.492   1_554  S
C454       Br455   1.923       .  S
C459        C460   1.406       .  A
C459        C464   1.387       .  A
C459        H466   1.084       .  S
C460        C461   1.412       .  A
C461        C462   1.408   1_554  A
C461       Br468   1.916   1_554  S
C462        C463   1.408   1_556  A
C462        H467   1.083       .  S
C463        C464   1.404       .  A
C463       C1160   1.485   1_554  S
C464      Br1521   1.916       .  S
Br465      C1520   1.916       .  S
C469        C470   1.413       .  A
C469        C474   1.390       .  A
C469        H476   1.080       .  S
C470        C471   1.414       .  A
C471        C472   1.394       .  A
C471       Br478   1.922       .  S
C472        C473   1.403       .  A
C472        H477   1.082       .  S
C473        C474   1.403       .  A
C474       Br475   1.920       .  S
C479        C480   1.405       .  A
C479        C484   1.398       .  A
C479        H486   1.082       .  S
C480        C481   1.400       .  A
C481        C482   1.390       .  A
C481       Br488   1.921       .  S
C482        C483   1.413       .  A
C482        H487   1.083       .  S
C483        C484   1.410       .  A
C484       Br485   1.919       .  S
C489        C490   1.401       .  A
C489        C494   1.405       .  A
C489        H496   1.084       .  S
C490        C491   1.407       .  A
C491        C492   1.391       .  A
C491       Br498   1.907       .  S
C492        C493   1.401       .  A
C492        H497   1.084       .  S
C493        C494   1.418       .  A
C494       Br495   1.919       .  S
C499        C500   1.409       .  A
C499        C504   1.401       .  A
C499        H506   1.084       .  S
C500        C501   1.405       .  A
C501        C502   1.394       .  A
C501       Br508   1.920       .  S
C502        C503   1.405       .  A
C502        H507   1.084       .  S
C503        C504   1.402       .  A
C504       Br505   1.917       .  S
C509        C514   1.403       .  A
C509       C1038   1.401       .  A
C509        H516   1.083       .  S
C510        C511   1.417       .  A
C510       C1037   1.401       .  A
C510        C531   1.484       .  S
C511        C512   1.387       .  A
C511       Br518   1.921       .  S
C512        C513   1.397       .  A
C512        H517   1.084       .  S
C513       C1042   1.420       .  A
C513       C1262   1.488       .  S
C514       C1041   1.420   1_545  A
C514       Br515   1.919       .  S
C519        C520   1.400       .  A
C519        C524   1.392       .  A
C519        H526   1.084       .  S
C520        C521   1.405       .  A
C521        C522   1.401       .  A
C521       Br528   1.917       .  S
C522        C523   1.406       .  A
C522        H527   1.083       .  S
C523        C524   1.410       .  A
C524       Br525   1.922       .  S
C529        C530   1.383       .  A
C529       C1051   1.476       .  S
C530        H535   1.084       .  S
C531        C532   1.417       .  A
C532        C533   1.423       .  A
C532        H536   1.080       .  S
C533        C534   1.423       .  A
C533        C728   1.522       .  S
C534        H537   1.077       .  S
O538       Ni546   1.936       .  S
O538        C548   1.287       .  A
O539       Ni546   1.937       .  S
O539        C549   1.286       .  A
O540       Ni546   1.889       .  S
O540        C550   1.274       .  A
O541       Ni546   1.897       .  S
O541        C551   1.274       .  A
O542       Ni547   1.943       .  S
O542        C551   1.287       .  A
O543       Ni547   1.934       .  S
O543        C550   1.285       .  A
O544       Ni547   1.886       .  S
O544        C549   1.273       .  A
O545       Ni547   1.879       .  S
O545        C548   1.273       .  A
Ni546      Ni547   2.390       .  S
C548       C1011   1.480       .  S
C549       C1031   1.464       .  S
C550       C1048   1.461       .  S
C551       C1018   1.471       .  S
C552        C553   1.393       .  A
C552        C557   1.391       .  A
C552       C1028   1.474       .  S
C553        C554   1.412       .  A
C553        H558   1.081       .  S
C554        C555   1.408       .  A
C554       C1775   1.498       .  S
C555        C556   1.414       .  A
C555        H559   1.080       .  S
C556        C557   1.404       .  A
C556        C998   1.494       .  S
C557        H560   1.081       .  S
C561        C562   1.390       .  A
C561        C566   1.396       .  A
C561       C1021   1.487       .  S
C562        C563   1.399       .  A
C562        H567   1.084       .  S
C563        C564   1.415       .  A
C563        C988   1.489       .  S
C564        C565   1.418       .  A
C564        H568   1.082       .  S
C565        C566   1.418       .  A
C565        C694   1.506       .  S
C566        H569   1.081       .  S
C570        C571   1.387       .  A
C570       C1008   1.469       .  S
C571        H576   1.084       .  S
C572        C573   1.419       .  A
C573        C574   1.419       .  A
C573        H577   1.083       .  S
C574        C575   1.409       .  A
C574       C1741   1.501       .  S
C575        H578   1.081       .  S
C579        C951   1.514       .  S
C579        C968   1.501       .  S
C580        C958   1.503   1_556  S
C581        C586   1.381       .  A
C581        C938   1.467       .  S
C582        C583   1.422       .  A
C582        H587   1.079       .  S
C583        C584   1.421       .  A
C583        C658   1.518       .  S
C584        C585   1.420       .  A
C584        H588   1.082       .  S
C585        C971   1.481       .  S
C586        H589   1.085       .  S
C590        C591   1.386       .  A
C590        C595   1.394       .  A
C590        C928   1.468       .  S
C591        C592   1.399       .  A
C591        H596   1.082       .  S
C592        C593   1.411       .  A
C592        C918   1.487       .  S
C593        C594   1.409       .  A
C593        H597   1.079       .  S
C594        C595   1.416       .  A
C594        C651   1.503       .  S
C595        H598   1.079       .  S
O599       Ni607   1.937       .  S
O599        C609   1.286       .  A
O600       Ni607   1.939       .  S
O600        C610   1.286       .  A
O601       Ni607   1.883       .  S
O601        C611   1.273       .  A
O602       Ni607   1.884       .  S
O602        C612   1.272       .  A
O603       Ni608   1.942       .  S
O603        C612   1.288       .  A
O604       Ni608   1.938       .  S
O604        C611   1.286       .  A
O605       Ni608   1.872       .  S
O605        C610   1.273       .  A
O606       Ni608   1.885       .  S
O606        C609   1.273       .  A
Ni607      Ni608   2.387       .  S
C609        C931   1.466       .  S
C610        C911   1.482       .  S
C611        C941   1.466       .  S
C612        C901   1.478       .  S
C613        C614   1.386       .  A
C613        C908   1.471       .  S
C614        H619   1.085       .  S
C615        C616   1.410       .  A
C615        C888   1.471       .  S
C616        C617   1.414       .  A
C616        H620   1.082       .  S
C617        C618   1.414       .  A
C617        C667   1.502       .  S
C618        H621   1.079       .  S
C622        C623   1.381       .  A
C622        C627   1.390       .  A
C622        C898   1.469       .  S
C623        C624   1.399       .  A
C623        H628   1.085       .  S
C624        C625   1.420       .  A
C624        C878   1.493       .  S
C625        C626   1.428       .  A
C625        H629   1.079       .  S
C626        C627   1.420       .  A
C626        C676   1.524       .  S
C627        H630   1.074       .  S
C631        C871   1.502       .  S
C631        C921   1.474       .  S
C631        C632   1.360       .  D
C632        C858   1.509       .  S
C632       C2047   1.485   1_556  S
O633       Ni641   1.926       .  S
O633        C643   1.282       .  A
O634       Ni641   1.928       .  S
O634        C644   1.282       .  A
O635       Ni641   1.925       .  S
O635        C645   1.282       .  A
O636       Ni641   1.918       .  S
O636        C646   1.283       .  A
O637       Ni642   1.918       .  S
O637        C646   1.280       .  A
O638       Ni642   1.931       .  S
O638        C645   1.283       .  A
O639       Ni642   1.909       .  S
O639        C644   1.282       .  A
O640       Ni642   1.918       .  S
O640        C643   1.280       .  A
Ni641      Ni642   2.386       .  S
C643        C828   1.475       .  S
C644        C848   1.489       .  S
C645        C821   1.483       .  S
C646        C838   1.487       .  S
C647        C648   1.400       .  A
C647        C652   1.390       .  A
C647        C841   1.477       .  S
C648        C649   1.414       .  A
C648        H653   1.080       .  S
C649        C650   1.416       .  A
C649        C948   1.508       .  S
C650        C651   1.418       .  A
C650        H654   1.080       .  S
C651        C652   1.403       .  A
C652        H655   1.079       .  S
C656        C657   1.388       .  A
C656        C661   1.393       .  A
C656        C831   1.483       .  S
C657        C658   1.411       .  A
C657        H662   1.078       .  S
C658        C659   1.427       .  A
C659        C660   1.427       .  A
C659        H663   1.081       .  S
C660        C661   1.409       .  A
C660        C868   1.510       .  S
C661        H664   1.082       .  S
C665        C666   1.392       .  A
C665        C670   1.393       .  A
C665        C851   1.478       .  S
C666        C667   1.408       .  A
C666        H671   1.080       .  S
C667        C668   1.415       .  A
C668        C669   1.415       .  A
C668        H672   1.080       .  S
C669        C670   1.413       .  A
C669        C808   1.502       .  S
C670        H673   1.082       .  S
C674        C675   1.397       .  A
C674        C679   1.402       .  A
C674        C818   1.504       .  S
C675        C676   1.416       .  A
C675        H680   1.073       .  S
C676        C677   1.420       .  A
C677        C678   1.419       .  A
C677        H681   1.078       .  S
C678        C679   1.411       .  A
C678        C801   1.508       .  S
C679        H682   1.082       .  S
C683        C684   1.395   1_455  A
C683        C688   1.396       .  A
C683        C788   1.490       .  S
C684        C685   1.410       .  A
C684        H689   1.081       .  S
C685        C686   1.411       .  A
C685       C1630   1.501       .  S
C686        C687   1.415   1_655  A
C686       H1746   1.080       .  S
C687        C688   1.415       .  A
C687        C861   1.502       .  S
C688        H691   1.081       .  S
H690       C1742   1.080       .  S
C692        C693   1.389       .  A
C692        C697   1.390       .  A
C692        C778   1.482       .  S
C693        C694   1.409       .  A
C693        H698   1.080       .  S
C694        C695   1.420       .  A
C695        C696   1.424       .  A
C695        H699   1.078       .  S
C696        C697   1.418       .  A
C696        C961   1.519       .  S
C697        H700   1.080       .  S
O701       Ni709   1.935       .  S
O701        C711   1.284       .  A
O702       Ni709   1.930       .  S
O702        C712   1.284       .  A
O703       Ni709   1.908       .  S
O703        C713   1.278       .  A
O704       Ni709   1.911       .  S
O704        C714   1.278       .  A
O705       Ni710   1.935       .  S
O705        C714   1.284       .  A
O706       Ni710   1.934       .  S
O706        C713   1.285       .  A
O707       Ni710   1.901       .  S
O707        C712   1.276       .  A
O708       Ni710   1.905       .  S
O708        C711   1.280       .  A
Ni709      Ni710   2.382       .  S
C711        C781   1.490       .  S
C712        C761   1.486       .  S
C713        C791   1.497       .  S
C714        C768   1.474       .  S
C715        C716   1.398       .  A
C715        C720   1.390   1_455  A
C715        C758   1.481       .  S
C716        C717   1.416       .  A
C716        H721   1.078       .  S
C717        C718   1.418   1_455  A
C717        C748   1.511       .  S
C718        C719   1.417       .  A
C718       H1778   1.081       .  S
C719        C720   1.402       .  A
C719       C1610   1.498       .  S
C720        H723   1.081       .  S
H722       C1774   1.081       .  S
C724        C725   1.391       .  A
C724        C729   1.391       .  A
C724        C771   1.485       .  S
C725        C726   1.404       .  A
C725        H730   1.081       .  S
C726        C727   1.424       .  A
C726        C738   1.507       .  S
C727        C728   1.427       .  A
C727        H731   1.079       .  S
C728        C729   1.415       .  A
C729        H732   1.076       .  S
C733        C798   1.516       .  S
C733        C891   1.489       .  S
C733        C734   1.376   1_565  D
C734       C2097   1.488   1_445  S
C735        C741   1.499       .  S
C735       C1001   1.478       .  S
C735        C736   1.361       .  D
C736        C811   1.509       .  S
C736        C881   1.487       .  S
C737        C738   1.412       .  A
C737        C742   1.412       .  A
C737        H744   1.082       .  S
C738        C739   1.420       .  A
C739        C740   1.394       .  A
C739       Br746   1.929       .  S
C740        C741   1.399       .  A
C740        H745   1.079       .  S
C741        C742   1.412       .  A
C742       Br743   1.914       .  S
C747        C748   1.412       .  A
C747        C752   1.407       .  A
C747       H1810   1.081   1_455  S
C748        C749   1.416       .  A
C749        C750   1.398       .  A
C749       Br756   1.924       .  S
C750        C751   1.403       .  A
C750        H755   1.071       .  S
C751        C752   1.412       .  A
C752      Br1809   1.910   1_455  S
Br753      C1808   1.910       .  S
H754       C1803   1.081       .  S
C757        C758   1.401       .  A
C757        C762   1.391       .  A
C757        H764   1.084       .  S
C758        C759   1.405       .  A
C759        C760   1.405       .  A
C759       Br766   1.911       .  S
C760        C761   1.410       .  A
C760        H765   1.083       .  S
C761        C762   1.418       .  A
C762       Br763   1.926       .  S
C767        C768   1.399       .  A
C767        C772   1.402       .  A
C767        H774   1.084       .  S
C768        C769   1.410       .  A
C769        C770   1.397       .  A
C769       Br776   1.910       .  S
C770        C771   1.400       .  A
C770        H775   1.084       .  S
C771        C772   1.417       .  A
C772       Br773   1.921       .  S
C777        C778   1.404       .  A
C777        C782   1.409       .  A
C777        H784   1.083       .  S
C778        C779   1.409       .  A
C779        C780   1.392       .  A
C779       Br786   1.924       .  S
C780        C781   1.406       .  A
C780        H785   1.083       .  S
C781        C782   1.416       .  A
C782       Br783   1.918       .  S
C787        C788   1.402       .  A
C787        C792   1.394       .  A
C787        H794   1.084       .  S
C788        C789   1.409       .  A
C789        C790   1.408       .  A
C789       Br796   1.919       .  S
C790        C791   1.413       .  A
C790        H795   1.083       .  S
C791        C792   1.420       .  A
C792       Br793   1.926       .  S
C797        C798   1.401       .  A
C797        C802   1.401       .  A
C797       H1860   1.068   1_455  S
C798        C799   1.414       .  A
C799        C800   1.406       .  A
C799       Br806   1.910       .  S
C800        C801   1.408       .  A
C800        H805   1.081       .  S
C801        C802   1.418       .  A
C802      Br1859   1.922   1_455  S
Br803      C1858   1.922       .  S
H804       C1853   1.068       .  S
C807        C808   1.410       .  A
C807        C812   1.401       .  A
C807        H814   1.083       .  S
C808        C809   1.416       .  A
C809        C810   1.398       .  A
C809       Br816   1.924       .  S
C810        C811   1.409       .  A
C810        H815   1.082       .  S
C811        C812   1.414       .  A
C812       Br813   1.913       .  S
C817       C1874   1.406       .  A
C817        C822   1.400       .  A
C817        H824   1.081       .  S
C818       C1873   1.406   1_455  A
C818        C819   1.421       .  A
C819       C1876   1.406       .  A
C819       Br826   1.922       .  S
C820       C1875   1.406       .  A
C820        C821   1.401       .  A
C820        H825   1.084       .  S
C821        C822   1.409       .  A
C822       Br823   1.912       .  S
C827        C828   1.398       .  A
C827       C1888   1.400       .  A
C827       H1890   1.084       .  S
C828        C829   1.413       .  A
C829        C830   1.400       .  A
C829       Br836   1.913       .  S
C830       C1887   1.399       .  A
C830        H835   1.084       .  S
C831       C1886   1.399   1_455  A
C831        C832   1.415       .  A
C832       C1883   1.400       .  A
C832       Br833   1.919       .  S
H834       C1883   1.084       .  S
C837        C838   1.405       .  A
C837        C842   1.393       .  A
C837        H844   1.083       .  S
C838        C839   1.418       .  A
C839        C840   1.406       .  A
C839       Br846   1.920       .  S
C840        C841   1.401       .  A
C840        H845   1.082       .  S
C841        C842   1.407       .  A
C842       Br843   1.922       .  S
C847        C848   1.405       .  A
C847        C852   1.390       .  A
C847        H854   1.083       .  S
C848        C849   1.419       .  A
C849        C850   1.408       .  A
C849       Br856   1.919       .  S
C850        C851   1.402       .  A
C850        H855   1.083       .  S
C851        C852   1.407       .  A
C852       Br853   1.923       .  S
C857        C858   1.408       .  A
C857        C862   1.398   1_456  A
C857        H864   1.082   1_455  S
C858        C859   1.414   1_556  A
C859        C860   1.401       .  A
C859       Br866   1.912       .  S
C860        C861   1.410       .  A
C860        H865   1.083       .  S
C861        C862   1.416   1_455  A
C862      Br1919   1.920       .  S
Br863      C1918   1.920       .  S
C867        C868   1.412       .  A
C867        C872   1.413       .  A
C867        H874   1.083       .  S
C868        C869   1.421       .  A
C869        C870   1.398       .  A
C869       Br876   1.927       .  S
C870        C871   1.400       .  A
C870        H875   1.080       .  S
C871        C872   1.413       .  A
C872       Br873   1.915   1_556  S
C877        C878   1.407       .  A
C877        C882   1.385       .  A
C877        H884   1.083       .  S
C878        C879   1.413       .  A
C879        C880   1.409       .  A
C879       Br886   1.916       .  S
C880        C881   1.409       .  A
C880        H885   1.083       .  S
C881        C882   1.403       .  A
C882       Br883   1.916       .  S
C887        C888   1.396       .  A
C887        C892   1.397       .  A
C887        H894   1.084       .  S
C888        C889   1.409       .  A
C889        C890   1.391       .  A
C890        C891   1.404       .  A
C891        C892   1.420       .  A
C892       Br893   1.914       .  S
C897        C898   1.392       .  A
C897        C902   1.392       .  A
C897        H904   1.084       .  S
C898        C899   1.410       .  A
C899        C900   1.402       .  A
C899       Br906   1.919       .  S
C900        C901   1.403       .  A
C900        H905   1.083       .  S
C901        C902   1.421       .  A
C902       Br903   1.925       .  S
C907        C908   1.407       .  A
C907        C912   1.398       .  A
C907        H914   1.083       .  S
C908        C909   1.401       .  A
C909        C910   1.388       .  A
C909       Br916   1.922       .  S
C910        C911   1.413       .  A
C910        H915   1.083       .  S
C911        C912   1.411       .  A
C912       Br913   1.919       .  S
C917        C918   1.412       .  A
C917        C922   1.388       .  A
C917        H924   1.080       .  S
C918        C919   1.412       .  A
C919        C920   1.392       .  A
C919       Br926   1.922       .  S
C920        C921   1.402       .  A
C920        H925   1.082       .  S
C921        C922   1.402       .  A
C922       Br923   1.920       .  S
C927        C928   1.395       .  A
C927        C932   1.392       .  A
C927        H934   1.084       .  S
C928        C929   1.411       .  A
C929        C930   1.400       .  A
C929       Br936   1.918       .  S
C930        C931   1.400       .  A
C930        H935   1.083       .  S
C931        C932   1.413       .  A
C932       Br933   1.920       .  S
C937        C938   1.397       .  A
C937        C942   1.389       .  A
C937        H944   1.084       .  S
C938        C939   1.406       .  A
C939        C940   1.403       .  A
C940        C941   1.404       .  A
C940        H945   1.083       .  S
C941        C942   1.411       .  A
C942       Br943   1.923       .  S
C947        C948   1.409       .  A
C947        C952   1.403       .  A
C947        H954   1.082       .  S
C948        C949   1.417       .  A
C949        C950   1.405       .  A
C949       Br956   1.921       .  S
C950        C951   1.406       .  A
C950        H955   1.073       .  S
C951        C952   1.411       .  A
C952       Br953   1.915       .  S
C957        C958   1.408   1_556  A
C957        C962   1.408   1_556  A
C957        H964   1.078       .  S
C958        C959   1.415       .  A
C959        C960   1.396       .  A
C959       Br966   1.923       .  S
C960        C961   1.412       .  A
C960        H965   1.081       .  S
C961        C962   1.421       .  A
C962       Br963   1.917       .  S
C967        C968   1.405       .  A
C967        C972   1.396       .  A
C967        H974   1.084       .  S
C969       Br976   1.901       .  S
C970        C971   1.395       .  A
C971        C972   1.416       .  A
C972       Br973   1.923       .  S
C977        C978   1.404       .  A
C977        C982   1.404   1_554  A
C977        H984   1.083       .  S
C979        C980   1.392       .  A
C979       Br986   1.925       .  S
C980        H985   1.077       .  S
C981        C982   1.418   1_564  A
C982       Br983   1.923       .  S
C987        C988   1.406       .  A
C987        C992   1.387       .  A
C987        H994   1.084       .  S
C988        C989   1.412       .  A
C989        C990   1.408   1_554  A
C989       Br996   1.916   1_554  S
C990        C991   1.408   1_556  A
C990        H995   1.083       .  S
C991        C992   1.404       .  A
C991       C1688   1.485   1_554  S
C992      Br2049   1.916       .  S
Br993      C2048   1.916       .  S
C997        C998   1.413       .  A
C997       C1002   1.390       .  A
C997       H1004   1.080       .  S
C998        C999   1.414       .  A
C999       C1000   1.394       .  A
C999      Br1006   1.922       .  S
C1000      C1001   1.403       .  A
C1000      H1005   1.082       .  S
C1001      C1002   1.403       .  A
C1002     Br1003   1.920       .  S
C1007      C1008   1.405       .  A
C1007      C1012   1.398       .  A
C1007      H1014   1.082       .  S
C1008      C1009   1.400       .  A
C1009      C1010   1.390       .  A
C1009     Br1016   1.921       .  S
C1010      C1011   1.413       .  A
C1010      H1015   1.083       .  S
C1011      C1012   1.410       .  A
C1012     Br1013   1.919       .  S
C1017      C1018   1.401       .  A
C1017      C1022   1.405       .  A
C1017      H1024   1.084       .  S
C1018      C1019   1.407       .  A
C1019      C1020   1.391       .  A
C1019     Br1026   1.907       .  S
C1020      C1021   1.401       .  A
C1020      H1025   1.084       .  S
C1021      C1022   1.418       .  A
C1022     Br1023   1.919       .  S
C1027      C1028   1.409       .  A
C1027      C1032   1.401       .  A
C1027      H1034   1.084       .  S
C1028      C1029   1.405       .  A
C1029      C1030   1.394       .  A
C1029     Br1036   1.920       .  S
C1030      C1031   1.405       .  A
C1030      H1035   1.084       .  S
C1031      C1032   1.402       .  A
C1032     Br1033   1.917       .  S
C1037      C1042   1.403       .  A
C1037      H1044   1.083       .  S
C1038      C1039   1.417   1_545  A
C1039      C1040   1.387       .  A
C1039     Br1046   1.921   1_565  S
C1040      C1041   1.397       .  A
C1040      H1045   1.084       .  S
C1041      C1790   1.488   1_565  S
C1042     Br1043   1.919       .  S
C1047      C1048   1.400       .  A
C1047      C1052   1.392       .  A
C1047      H1054   1.084       .  S
C1048      C1049   1.405       .  A
C1049      C1050   1.401       .  A
C1049     Br1056   1.917       .  S
C1050      C1051   1.406       .  A
C1050      H1055   1.083   1_565  S
C1051      C1052   1.410       .  A
C1052     Br1053   1.922       .  S
C1057      C1058   1.383       .  A
C1057      C1590   1.397       .  A
C1057      C1579   1.476       .  S
C1058      C1587   1.391       .  A
C1058      H1063   1.084       .  S
C1059      C1586   1.391   1_545  A
C1059      C1060   1.417       .  A
C1059      C2094   1.484       .  S
C1060      C1061   1.423       .  A
C1060      H1064   1.080       .  S
C1061      C1062   1.423       .  A
C1061      C1256   1.522       .  S
C1062      C1585   1.397   1_545  A
C1062      H1065   1.077       .  S
O1066     Ni1074   1.936       .  S
O1066      C1076   1.287       .  A
O1067     Ni1074   1.937       .  S
O1067      C1077   1.286       .  A
O1068     Ni1074   1.889       .  S
O1068      C1078   1.274       .  A
O1069     Ni1074   1.897       .  S
O1069      C1079   1.274       .  A
O1070     Ni1075   1.943       .  S
O1070      C1079   1.287       .  A
O1071     Ni1075   1.934       .  S
O1071      C1078   1.285       .  A
O1072     Ni1075   1.886       .  S
O1072      C1077   1.273       .  A
O1073     Ni1075   1.879       .  S
O1073      C1076   1.273       .  A
Ni1074    Ni1075   2.390       .  S
C1076      C1539   1.480       .  S
C1077      C1559   1.464       .  S
C1078      C1576   1.461       .  S
C1079      C1546   1.471       .  S
C1080      C1081   1.393       .  A
C1080      C1085   1.391       .  A
C1080      C1556   1.474       .  S
C1081      C1082   1.412       .  A
C1081      H1086   1.081       .  S
C1082      C1083   1.408       .  A
C1083      C1084   1.414       .  A
C1083      H1087   1.080       .  S
C1084      C1085   1.404       .  A
C1084      C1526   1.494       .  S
C1085      H1088   1.081       .  S
C1089      C1090   1.390       .  A
C1089      C1094   1.396       .  A
C1089      C1549   1.487       .  S
C1090      C1091   1.399       .  A
C1090      H1095   1.084       .  S
C1091      C1092   1.415       .  A
C1091      C1516   1.489       .  S
C1092      C1093   1.418       .  A
C1092      H1096   1.082       .  S
C1093      C1094   1.418       .  A
C1093      C1222   1.506       .  S
C1094      H1097   1.081       .  S
C1098      C1099   1.387       .  A
C1098      C1631   1.390       .  A
C1098      C1536   1.469       .  S
C1099      C1628   1.399       .  A
C1099      H1104   1.084       .  S
C1100      C1627   1.399   1_545  A
C1100      C1101   1.419       .  A
C1100      C2034   1.489       .  S
C1101      C1102   1.419       .  A
C1101      H1105   1.083       .  S
C1102      C1103   1.409       .  A
C1103      C1626   1.390   1_545  A
C1103      H1106   1.081       .  S
C1107      C1479   1.514       .  S
C1107      C1496   1.501       .  S
C1107      C1636   1.371       .  D
C1108      C1486   1.503   1_556  S
C1108      C2037   1.492   1_546  S
C1108      C1635   1.371   1_545  D
C1109      C1638   1.394       .  A
C1109      C1114   1.381       .  A
C1109      C1466   1.467       .  S
C1110      C1637   1.394       .  A
C1110      C1111   1.422       .  A
C1110      H1115   1.079       .  S
C1111      C1112   1.421       .  A
C1111      C1186   1.518       .  S
C1112      C1113   1.420       .  A
C1112      H1116   1.082       .  S
C1113      C1642   1.390       .  A
C1113      C1499   1.481       .  S
C1114      C1641   1.390       .  A
C1114      H1117   1.085   1_565  S
C1118      C1119   1.386       .  A
C1118      C1123   1.394       .  A
C1118      C1456   1.468       .  S
C1119      C1120   1.399       .  A
C1119      H1124   1.082       .  S
C1120      C1121   1.411       .  A
C1120      C1446   1.487       .  S
C1121      C1122   1.409       .  A
C1121      H1125   1.079       .  S
C1122      C1123   1.416       .  A
C1122      C1179   1.503       .  S
C1123      H1126   1.079       .  S
O1127     Ni1135   1.937       .  S
O1127      C1137   1.286       .  A
O1128     Ni1135   1.939       .  S
O1128      C1138   1.286       .  A
O1129     Ni1135   1.883       .  S
O1129      C1139   1.273       .  A
O1130     Ni1135   1.884       .  S
O1130      C1140   1.272       .  A
O1131     Ni1136   1.942       .  S
O1131      C1140   1.288       .  A
O1132     Ni1136   1.938       .  S
O1132      C1139   1.286       .  A
O1133     Ni1136   1.872       .  S
O1133      C1138   1.273       .  A
O1134     Ni1136   1.885       .  S
O1134      C1137   1.273       .  A
Ni1135    Ni1136   2.387       .  S
C1137      C1459   1.466       .  S
C1138      C1439   1.482       .  S
C1139      C1469   1.466       .  S
C1140      C1429   1.478       .  S
C1141      C1142   1.386       .  A
C1141      C1674   1.397       .  A
C1141      C1436   1.471   1_565  S
C1142      C1671   1.391       .  A
C1142      H1147   1.085   1_565  S
C1143      C1670   1.391       .  A
C1143      C1144   1.410       .  A
C1143      C1416   1.471       .  S
C1144      C1145   1.414       .  A
C1144      H1148   1.082       .  S
C1145      C1146   1.414       .  A
C1145      C1195   1.502       .  S
C1146      C1669   1.397       .  A
C1146      H1149   1.079       .  S
C1150      C1151   1.381       .  A
C1150      C1155   1.390       .  A
C1150      C1426   1.469       .  S
C1151      C1152   1.399       .  A
C1151      H1156   1.085       .  S
C1152      C1153   1.420       .  A
C1152      C1406   1.493       .  S
C1153      C1154   1.428       .  A
C1153      H1157   1.079       .  S
C1154      C1155   1.420       .  A
C1154      C1204   1.524       .  S
C1155      H1158   1.074       .  S
C1159      C1399   1.502       .  S
C1159      C1449   1.474       .  S
C1159      C1160   1.360       .  D
C1160      C1386   1.509       .  S
O1161     Ni1169   1.926       .  S
O1161      C1171   1.282       .  A
O1162     Ni1169   1.928       .  S
O1162      C1172   1.282       .  A
O1163     Ni1169   1.925       .  S
O1163      C1173   1.282       .  A
O1164     Ni1169   1.918       .  S
O1164      C1174   1.283       .  A
O1165     Ni1170   1.918       .  S
O1165      C1174   1.280       .  A
O1166     Ni1170   1.931       .  S
O1166      C1173   1.283       .  A
O1167     Ni1170   1.909       .  S
O1167      C1172   1.282       .  A
O1168     Ni1170   1.918       .  S
O1168      C1171   1.280       .  A
Ni1169    Ni1170   2.386       .  S
C1171      C1356   1.475       .  S
C1172      C1376   1.489       .  S
C1173      C1349   1.483       .  S
C1174      C1366   1.487       .  S
C1175      C1176   1.400       .  A
C1175      C1180   1.390       .  A
C1175      C1369   1.477       .  S
C1176      C1177   1.414       .  A
C1176      H1181   1.080       .  S
C1177      C1178   1.416       .  A
C1177      C1476   1.508       .  S
C1178      C1179   1.418       .  A
C1178      H1182   1.080       .  S
C1179      C1180   1.403       .  A
C1180      H1183   1.079       .  S
C1184      C1185   1.388       .  A
C1184      C1189   1.393       .  A
C1184      C1359   1.483       .  S
C1185      C1186   1.411       .  A
C1185      H1190   1.078       .  S
C1186      C1187   1.427       .  A
C1187      C1188   1.427       .  A
C1187      H1191   1.081       .  S
C1188      C1189   1.409       .  A
C1188      C1396   1.510       .  S
C1189      H1192   1.082       .  S
C1193      C1194   1.392       .  A
C1193      C1198   1.393       .  A
C1193      C1379   1.478       .  S
C1194      C1195   1.408       .  A
C1194      H1199   1.080       .  S
C1195      C1196   1.415       .  A
C1196      C1197   1.415       .  A
C1196      H1200   1.080       .  S
C1197      C1198   1.413       .  A
C1197      C1336   1.502       .  S
C1198      H1201   1.082       .  S
C1202      C1203   1.397       .  A
C1202      C1207   1.402       .  A
C1202      C1346   1.504       .  S
C1203      C1204   1.416       .  A
C1203      H1208   1.073       .  S
C1204      C1205   1.420       .  A
C1205      C1206   1.419       .  A
C1205      H1209   1.078       .  S
C1206      C1207   1.411       .  A
C1206      C1329   1.508       .  S
C1207      H1210   1.082       .  S
C1211      C1212   1.395       .  A
C1211      C1216   1.396       .  A
C1211      C1316   1.490       .  S
C1212      C1213   1.410       .  A
C1212      H1217   1.081       .  S
C1213      C1214   1.411       .  A
C1214      C1215   1.415       .  A
C1215      C1216   1.415       .  A
C1215      C1389   1.502       .  S
C1216      H1219   1.081       .  S
C1220      C1221   1.389       .  A
C1220      C1225   1.390       .  A
C1220      C1306   1.482       .  S
C1221      C1222   1.409       .  A
C1221      H1226   1.080       .  S
C1222      C1223   1.420       .  A
C1223      C1224   1.424       .  A
C1223      H1227   1.078       .  S
C1224      C1225   1.418       .  A
C1224      C1489   1.519       .  S
C1225      H1228   1.080       .  S
O1229     Ni1237   1.935       .  S
O1229      C1239   1.284       .  A
O1230     Ni1237   1.930       .  S
O1230      C1240   1.284       .  A
O1231     Ni1237   1.908       .  S
O1231      C1241   1.278       .  A
O1232     Ni1237   1.911       .  S
O1232      C1242   1.278       .  A
O1233     Ni1238   1.935       .  S
O1233      C1242   1.284       .  A
O1234     Ni1238   1.934       .  S
O1234      C1241   1.285       .  A
O1235     Ni1238   1.901       .  S
O1235      C1240   1.277       .  A
O1236     Ni1238   1.905       .  S
O1236      C1239   1.280       .  A
Ni1237    Ni1238   2.382       .  S
C1239      C1309   1.490       .  S
C1240      C1289   1.486       .  S
C1241      C1319   1.497       .  S
C1242      C1296   1.474       .  S
C1243      C1244   1.398       .  A
C1243      C1248   1.390       .  A
C1243      C1286   1.481       .  S
C1244      C1245   1.416       .  A
C1244      H1249   1.078       .  S
C1245      C1246   1.418       .  A
C1245      C1276   1.511       .  S
C1246      C1247   1.417       .  A
C1247      C1248   1.402       .  A
C1248      H1251   1.081       .  S
C1252      C1253   1.391       .  A
C1252      C1257   1.391       .  A
C1252      C1299   1.485       .  S
C1253      C1254   1.404       .  A
C1253      H1258   1.081       .  S
C1254      C1255   1.424       .  A
C1254      C1266   1.507       .  S
C1255      C1256   1.427       .  A
C1255      H1259   1.079       .  S
C1256      C1257   1.415       .  A
C1257      H1260   1.076       .  S
C1261      C1326   1.516       .  S
C1261      C1419   1.489       .  S
C1261      C1262   1.376       .  D
C1262      C1807   1.510       .  S
C1263      C1269   1.499       .  S
C1263      C1529   1.478       .  S
C1263      C1264   1.361       .  D
C1264      C1339   1.509       .  S
C1264      C1409   1.487       .  S
C1265      C1266   1.412       .  A
C1265      C1270   1.412       .  A
C1265      H1272   1.082       .  S
C1266      C1267   1.420       .  A
C1267      C1268   1.394       .  A
C1267     Br1274   1.929       .  S
C1268      C1269   1.399       .  A
C1268      H1273   1.079       .  S
C1269      C1270   1.412       .  A
C1270     Br1271   1.914       .  S
C1275      C1276   1.412       .  A
C1275      C1280   1.407       .  A
C1276      C1277   1.416       .  A
C1277      C1278   1.398       .  A
C1277     Br1284   1.924       .  S
C1278      C1279   1.403       .  A
C1278      H1283   1.071       .  S
C1279      C1280   1.412       .  A
C1279      C1790   1.510       .  S
C1285      C1286   1.401       .  A
C1285      C1290   1.391       .  A
C1285      H1292   1.084       .  S
C1286      C1287   1.405       .  A
C1287      C1288   1.405       .  A
C1287     Br1294   1.911       .  S
C1288      C1289   1.410       .  A
C1288      H1293   1.083       .  S
C1289      C1290   1.418       .  A
C1290     Br1291   1.926       .  S
C1295      C1296   1.399       .  A
C1295      C1300   1.402       .  A
C1295      H1302   1.084       .  S
C1296      C1297   1.410       .  A
C1297      C1298   1.397       .  A
C1297     Br1304   1.910       .  S
C1298      C1299   1.400       .  A
C1298      H1303   1.084       .  S
C1299      C1300   1.417       .  A
C1300     Br1301   1.921       .  S
C1305      C1306   1.404       .  A
C1305      C1310   1.409       .  A
C1305      H1312   1.083       .  S
C1306      C1307   1.409       .  A
C1307      C1308   1.392       .  A
C1307     Br1314   1.924       .  S
C1308      C1309   1.406       .  A
C1308      H1313   1.083       .  S
C1309      C1310   1.416       .  A
C1310     Br1311   1.918       .  S
C1315      C1316   1.402       .  A
C1315      C1320   1.394       .  A
C1315      H1322   1.084       .  S
C1316      C1317   1.409       .  A
C1317      C1318   1.408       .  A
C1317     Br1324   1.919       .  S
C1318      C1319   1.413       .  A
C1318      H1323   1.083       .  S
C1319      C1320   1.420       .  A
C1320     Br1321   1.926       .  S
C1325      C1326   1.401       .  A
C1325      C1330   1.401       .  A
C1326      C1327   1.414       .  A
C1327      C1328   1.406       .  A
C1327     Br1334   1.910       .  S
C1328      C1329   1.408       .  A
C1328      H1333   1.081       .  S
C1329      C1330   1.418       .  A
C1335      C1336   1.410       .  A
C1335      C1340   1.401       .  A
C1335      H1342   1.083       .  S
C1336      C1337   1.416       .  A
C1337      C1338   1.398       .  A
C1337     Br1344   1.924       .  S
C1338      C1339   1.409       .  A
C1338      H1343   1.082       .  S
C1339      C1340   1.414       .  A
C1340     Br1341   1.913       .  S
C1345      C1350   1.400       .  A
C1345      H1352   1.081       .  S
C1346      C1347   1.421       .  A
C1347     Br1354   1.922       .  S
C1348      C1349   1.401   1_455  A
C1348      H1353   1.084       .  S
C1349      C1350   1.409       .  A
C1350     Br1351   1.912       .  S
C1355      C1356   1.398   1_455  A
C1356      C1357   1.413       .  A
C1357      C1358   1.400       .  A
C1357     Br1364   1.913       .  S
C1358      H1363   1.084       .  S
C1359      C1360   1.415       .  A
C1360     Br1361   1.919       .  S
C1365      C1366   1.405       .  A
C1365      C1370   1.393       .  A
C1365      H1372   1.083       .  S
C1366      C1367   1.418       .  A
C1367      C1368   1.406       .  A
C1367     Br1374   1.920       .  S
C1368      C1369   1.401       .  A
C1368      H1373   1.082       .  S
C1369      C1370   1.407       .  A
C1370     Br1371   1.922       .  S
C1375      C1376   1.405       .  A
C1375      C1380   1.390       .  A
C1375      H1382   1.083       .  S
C1376      C1377   1.419       .  A
C1377      C1378   1.408       .  A
C1377     Br1384   1.919       .  S
C1378      C1379   1.402       .  A
C1378      H1383   1.083       .  S
C1379      C1380   1.407       .  A
C1380     Br1381   1.923       .  S
C1385      C1386   1.408       .  A
C1385      C1390   1.398   1_556  A
C1385      H1392   1.082       .  S
C1386      C1387   1.414   1_556  A
C1387      C1388   1.401       .  A
C1387     Br1394   1.912       .  S
C1388      C1389   1.410       .  A
C1388      H1393   1.083       .  S
C1389      C1390   1.416       .  A
C1395      C1396   1.412       .  A
C1395      C1400   1.413       .  A
C1395      H1402   1.083       .  S
C1396      C1397   1.421       .  A
C1397      C1398   1.398       .  A
C1397     Br1404   1.927       .  S
C1398      C1399   1.400       .  A
C1398      H1403   1.080       .  S
C1399      C1400   1.413       .  A
C1400     Br1401   1.915   1_556  S
C1405      C1406   1.407       .  A
C1405      C1410   1.385       .  A
C1405      H1412   1.083       .  S
C1406      C1407   1.413       .  A
C1407      C1408   1.409       .  A
C1407     Br1414   1.916       .  S
C1408      C1409   1.409       .  A
C1408      H1413   1.083       .  S
C1409      C1410   1.403       .  A
C1410     Br1411   1.916       .  S
C1415      C1416   1.396       .  A
C1415      C1420   1.397       .  A
C1415      H1422   1.084       .  S
C1416      C1417   1.409       .  A
C1417      C1418   1.391       .  A
C1417     Br1952   1.923       .  S
C1418      C1419   1.404       .  A
C1418      H1951   1.084       .  S
C1419      C1420   1.420       .  A
C1420     Br1421   1.914       .  S
H1423      C1946   1.084       .  S
Br1424     C1945   1.923       .  S
C1425      C1426   1.392       .  A
C1425      C1430   1.392       .  A
C1425      H1432   1.084       .  S
C1426      C1427   1.410       .  A
C1427      C1428   1.402       .  A
C1427     Br1434   1.919       .  S
C1428      C1429   1.403       .  A
C1428      H1433   1.083       .  S
C1429      C1430   1.421       .  A
C1430     Br1431   1.925       .  S
C1435      C1436   1.407       .  A
C1435      C1440   1.398       .  A
C1435      H1442   1.083       .  S
C1436      C1437   1.401       .  A
C1437      C1438   1.388       .  A
C1437     Br1444   1.922       .  S
C1438      C1439   1.413       .  A
C1438      H1443   1.083       .  S
C1439      C1440   1.411       .  A
C1440     Br1441   1.919       .  S
C1445      C1446   1.412       .  A
C1445      C1450   1.388       .  A
C1445      H1452   1.080       .  S
C1446      C1447   1.412       .  A
C1447      C1448   1.392       .  A
C1447     Br1454   1.922       .  S
C1448      C1449   1.402       .  A
C1448      H1453   1.082       .  S
C1449      C1450   1.402       .  A
C1450     Br1451   1.920       .  S
C1455      C1456   1.395       .  A
C1455      C1460   1.392       .  A
C1455      H1462   1.084       .  S
C1456      C1457   1.411       .  A
C1457      C1458   1.400       .  A
C1457     Br1464   1.918       .  S
C1458      C1459   1.400       .  A
C1458      H1463   1.083       .  S
C1459      C1460   1.413       .  A
C1460     Br1461   1.920       .  S
C1465      C1466   1.397   1_545  A
C1465      C1470   1.389       .  A
C1465      H1472   1.084       .  S
C1466      C1467   1.406       .  A
C1467      C1468   1.403   1_565  A
C1467     Br2002   1.914       .  S
C1468      C1469   1.404       .  A
C1468      H1473   1.083       .  S
C1469      C1470   1.411       .  A
C1470     Br1471   1.923       .  S
Br1474     C1995   1.914       .  S
C1475      C1476   1.409       .  A
C1475      C1480   1.403       .  A
C1475      H1482   1.082       .  S
C1476      C1477   1.417       .  A
C1477      C1478   1.405       .  A
C1477     Br1484   1.921       .  S
C1478      C1479   1.406       .  A
C1478      H1483   1.073       .  S
C1479      C1480   1.411       .  A
C1480     Br1481   1.915       .  S
C1485      C1486   1.408   1_556  A
C1485      C1490   1.408   1_556  A
C1485      H1492   1.078       .  S
C1486      C1487   1.415       .  A
C1487      C1488   1.396       .  A
C1487     Br1494   1.923       .  S
C1488      C1489   1.412       .  A
C1488      H1493   1.081       .  S
C1489      C1490   1.421       .  A
C1490     Br1491   1.917       .  S
C1495      C1496   1.405       .  A
C1495      C1500   1.396       .  A
C1495      H1502   1.084       .  S
C1496      C2025   1.417       .  A
C1497      C2024   1.417       .  A
C1497      C2026   1.398       .  A
C1497     Br1504   1.901   1_565  S
C1498      C2025   1.398       .  A
C1498      C1499   1.395       .  A
C1498      H2031   1.084       .  S
C1499      C1500   1.416       .  A
C1500     Br1501   1.923       .  S
H1503      C2026   1.084       .  S
C1505      C1506   1.404       .  A
C1505      C1510   1.404   1_554  A
C1505      H1512   1.083       .  S
C1506      C2035   1.417       .  A
C1506      C1628   1.489       .  S
C1507      C2034   1.417   1_565  A
C1507      C1508   1.392       .  A
C1507     Br1514   1.925       .  S
C1508      C2037   1.396       .  A
C1508      H1513   1.077       .  S
C1509      C2036   1.396       .  A
C1509      C1510   1.418   1_554  A
C1509      C1636   1.492   1_554  S
C1510     Br1511   1.923       .  S
C1515      C1516   1.406       .  A
C1515      C1520   1.387   1_655  A
C1515      H1522   1.084       .  S
C1516      C1517   1.412       .  A
C1517      C1518   1.408   1_554  A
C1517     Br1524   1.916   1_554  S
C1518      C1519   1.408   1_656  A
C1518      H1523   1.083       .  S
C1519      C1520   1.404       .  A
C1525      C1526   1.413       .  A
C1525      C1530   1.390       .  A
C1525      H1532   1.080       .  S
C1526      C1527   1.414       .  A
C1527      C1528   1.394       .  A
C1527     Br1534   1.922       .  S
C1528      C1529   1.403       .  A
C1528      H1533   1.082       .  S
C1529      C1530   1.403       .  A
C1530     Br1531   1.920       .  S
C1535      C1536   1.405       .  A
C1535      C1540   1.398       .  A
C1535      H1542   1.082       .  S
C1536      C1537   1.400       .  A
C1537      C1538   1.390       .  A
C1537     Br1544   1.921   1_655  S
C1538      C1539   1.413       .  A
C1538      H1543   1.083       .  S
C1539      C1540   1.410       .  A
C1540     Br1541   1.919       .  S
C1545      C1546   1.401       .  A
C1545      C1550   1.405       .  A
C1545      H1552   1.084       .  S
C1546      C1547   1.407       .  A
C1547      C1548   1.391       .  A
C1547     Br1554   1.907       .  S
C1548      C1549   1.401       .  A
C1548      H1553   1.084       .  S
C1549      C1550   1.418       .  A
C1550     Br1551   1.919       .  S
C1555      C1556   1.409       .  A
C1555      C1560   1.401       .  A
C1555      H1562   1.084       .  S
C1556      C1557   1.405       .  A
C1557      C1558   1.394       .  A
C1557     Br1564   1.920       .  S
C1558      C1559   1.405       .  A
C1558      H1563   1.084       .  S
C1559      C1560   1.402       .  A
C1560     Br1561   1.917       .  S
C1565      C2094   1.401       .  A
C1565      C1570   1.403       .  A
C1565      H1572   1.083       .  S
C1566      C2093   1.401       .  A
C1566      C1567   1.417       .  A
C1566      C1587   1.484       .  S
C1567      C1568   1.387       .  A
C1567     Br1574   1.921       .  S
C1568      C1569   1.397       .  A
C1568      H1573   1.084   1_655  S
C1569      C2098   1.420       .  A
C1570      C2097   1.420   1_545  A
C1570     Br1571   1.919       .  S
C1575      C1576   1.400       .  A
C1575      C1580   1.392       .  A
C1575      H1582   1.084       .  S
C1576      C1577   1.405       .  A
C1577      C1578   1.401       .  A
C1577     Br1584   1.917       .  S
C1578      C1579   1.406       .  A
C1578      H1583   1.083       .  S
C1579      C1580   1.410       .  A
C1580     Br1581   1.922       .  S
C1585      C1586   1.383       .  A
C1585      C2107   1.476       .  S
C1586      H1591   1.084       .  S
C1587      C1588   1.417       .  A
C1588      C1589   1.423       .  A
C1588      H1592   1.080       .  S
C1589      C1590   1.423       .  A
C1589      C1784   1.522       .  S
C1590      H1593   1.077       .  S
O1594     Ni1602   1.936       .  S
O1594      C1604   1.287       .  A
O1595     Ni1602   1.937       .  S
O1595      C1605   1.286       .  A
O1596     Ni1602   1.889       .  S
O1596      C1606   1.274       .  A
O1597     Ni1602   1.897       .  S
O1597      C1607   1.274       .  A
O1598     Ni1603   1.943       .  S
O1598      C1607   1.287       .  A
O1599     Ni1603   1.934       .  S
O1599      C1606   1.285       .  A
O1600     Ni1603   1.886       .  S
O1600      C1605   1.273       .  A
O1601     Ni1603   1.879       .  S
O1601      C1604   1.273       .  A
Ni1602    Ni1603   2.390       .  S
C1604      C2067   1.480       .  S
C1605      C2087   1.464       .  S
C1606      C2104   1.461       .  S
C1607      C2074   1.471       .  S
C1608      C1609   1.393       .  A
C1608      C1613   1.391       .  A
C1608      C2084   1.474       .  S
C1609      C1610   1.412       .  A
C1609      H1614   1.081       .  S
C1610      C1611   1.408       .  A
C1611      C1612   1.414       .  A
C1611      H1615   1.080       .  S
C1612      C1613   1.404       .  A
C1612      C2054   1.494       .  S
C1613      H1616   1.081       .  S
C1617      C1618   1.390       .  A
C1617      C1622   1.396       .  A
C1617      C2077   1.487       .  S
C1618      C1619   1.399       .  A
C1618      H1623   1.084       .  S
C1619      C1620   1.415       .  A
C1619      C2044   1.489       .  S
C1620      C1621   1.418       .  A
C1620      H1624   1.082       .  S
C1621      C1622   1.418       .  A
C1621      C1750   1.506       .  S
C1622      H1625   1.081       .  S
C1626      C1627   1.387       .  A
C1626      C2064   1.469       .  S
C1627      H1632   1.084       .  S
C1628      C1629   1.419       .  A
C1629      C1630   1.419       .  A
C1629      H1633   1.083       .  S
C1630      C1631   1.409       .  A
C1631      H1634   1.081       .  S
C1635      C2007   1.514       .  S
C1635      C2024   1.501       .  S
C1636      C2014   1.503   1_556  S
C1637      C1642   1.381       .  A
C1637      C1994   1.467       .  S
C1638      C1639   1.422       .  A
C1638      H1643   1.079       .  S
C1639      C1640   1.421       .  A
C1639      C1714   1.518       .  S
C1640      C1641   1.420       .  A
C1640      H1644   1.082       .  S
C1641      C2027   1.481       .  S
C1642      H1645   1.085       .  S
C1646      C1647   1.386       .  A
C1646      C1651   1.394       .  A
C1646      C1984   1.468       .  S
C1647      C1648   1.399       .  A
C1647      H1652   1.082       .  S
C1648      C1649   1.411       .  A
C1648      C1974   1.487       .  S
C1649      C1650   1.409       .  A
C1649      H1653   1.079       .  S
C1650      C1651   1.416       .  A
C1650      C1707   1.503       .  S
C1651      H1654   1.079       .  S
O1655     Ni1663   1.937       .  S
O1655      C1665   1.286       .  A
O1656     Ni1663   1.939       .  S
O1656      C1666   1.286       .  A
O1657     Ni1663   1.883       .  S
O1657      C1667   1.273       .  A
O1658     Ni1663   1.884       .  S
O1658      C1668   1.272       .  A
O1659     Ni1664   1.942       .  S
O1659      C1668   1.288       .  A
O1660     Ni1664   1.938       .  S
O1660      C1667   1.286       .  A
O1661     Ni1664   1.872       .  S
O1661      C1666   1.273       .  A
O1662     Ni1664   1.885       .  S
O1662      C1665   1.273       .  A
Ni1663    Ni1664   2.387       .  S
C1665      C1987   1.466       .  S
C1666      C1967   1.482       .  S
C1667      C1997   1.466       .  S
C1668      C1957   1.478       .  S
C1669      C1670   1.386       .  A
C1669      C1964   1.471       .  S
C1670      H1675   1.085       .  S
C1671      C1672   1.410       .  A
C1671      C1944   1.471       .  S
C1672      C1673   1.414       .  A
C1672      H1676   1.082       .  S
C1673      C1674   1.414       .  A
C1673      C1723   1.502       .  S
C1674      H1677   1.079       .  S
C1678      C1679   1.381       .  A
C1678      C1683   1.390       .  A
C1678      C1954   1.469       .  S
C1679      C1680   1.399       .  A
C1679      H1684   1.085       .  S
C1680      C1681   1.420       .  A
C1680      C1934   1.493       .  S
C1681      C1682   1.428       .  A
C1681      H1685   1.079       .  S
C1682      C1683   1.420       .  A
C1682      C1732   1.524       .  S
C1683      H1686   1.074       .  S
C1687      C1927   1.502       .  S
C1687      C1977   1.474       .  S
C1687      C1688   1.360       .  D
C1688      C1914   1.509       .  S
O1689     Ni1697   1.926       .  S
O1689      C1699   1.282       .  A
O1690     Ni1697   1.928       .  S
O1690      C1700   1.282       .  A
O1691     Ni1697   1.925       .  S
O1691      C1701   1.282       .  A
O1692     Ni1697   1.918       .  S
O1692      C1702   1.283       .  A
O1693     Ni1698   1.918       .  S
O1693      C1702   1.280       .  A
O1694     Ni1698   1.931       .  S
O1694      C1701   1.283       .  A
O1695     Ni1698   1.909       .  S
O1695      C1700   1.282       .  A
O1696     Ni1698   1.918       .  S
O1696      C1699   1.280       .  A
Ni1697    Ni1698   2.386       .  S
C1699      C1884   1.475       .  S
C1700      C1904   1.489       .  S
C1701      C1877   1.483       .  S
C1702      C1894   1.487       .  S
C1703      C1704   1.400       .  A
C1703      C1708   1.390       .  A
C1703      C1897   1.477       .  S
C1704      C1705   1.414       .  A
C1704      H1709   1.080       .  S
C1705      C1706   1.416       .  A
C1705      C2004   1.508       .  S
C1706      C1707   1.418       .  A
C1706      H1710   1.080       .  S
C1707      C1708   1.403       .  A
C1708      H1711   1.079       .  S
C1712      C1713   1.388       .  A
C1712      C1717   1.393       .  A
C1712      C1887   1.483       .  S
C1713      C1714   1.411       .  A
C1713      H1718   1.078       .  S
C1714      C1715   1.427       .  A
C1715      C1716   1.427       .  A
C1715      H1719   1.081       .  S
C1716      C1717   1.409       .  A
C1716      C1924   1.510       .  S
C1717      H1720   1.082       .  S
C1721      C1722   1.392       .  A
C1721      C1726   1.393       .  A
C1721      C1907   1.478       .  S
C1722      C1723   1.408       .  A
C1722      H1727   1.080       .  S
C1723      C1724   1.415       .  A
C1724      C1725   1.415       .  A
C1724      H1728   1.080       .  S
C1725      C1726   1.413       .  A
C1725      C1864   1.502       .  S
C1726      H1729   1.082       .  S
C1730      C1731   1.397       .  A
C1730      C1735   1.402       .  A
C1730      C1874   1.504       .  S
C1731      C1732   1.416       .  A
C1731      H1736   1.073       .  S
C1732      C1733   1.420       .  A
C1733      C1734   1.419       .  A
C1733      H1737   1.078       .  S
C1734      C1735   1.411       .  A
C1734      C1857   1.508       .  S
C1735      H1738   1.082       .  S
C1739      C1740   1.395       .  A
C1739      C1744   1.396       .  A
C1739      C1844   1.490       .  S
C1740      C1741   1.410       .  A
C1740      H1745   1.081       .  S
C1741      C1742   1.411       .  A
C1742      C1743   1.415       .  A
C1743      C1744   1.415       .  A
C1743      C1917   1.502       .  S
C1744      H1747   1.081       .  S
C1748      C1749   1.389       .  A
C1748      C1753   1.390       .  A
C1748      C1834   1.482       .  S
C1749      C1750   1.409       .  A
C1749      H1754   1.080       .  S
C1750      C1751   1.420       .  A
C1751      C1752   1.424       .  A
C1751      H1755   1.078       .  S
C1752      C1753   1.418       .  A
C1752      C2017   1.519       .  S
C1753      H1756   1.080       .  S
O1757     Ni1765   1.935       .  S
O1757      C1767   1.284       .  A
O1758     Ni1765   1.930       .  S
O1758      C1768   1.284       .  A
O1759     Ni1765   1.908       .  S
O1759      C1769   1.278       .  A
O1760     Ni1765   1.911       .  S
O1760      C1770   1.278       .  A
O1761     Ni1766   1.935       .  S
O1761      C1770   1.284       .  A
O1762     Ni1766   1.934       .  S
O1762      C1769   1.285       .  A
O1763     Ni1766   1.901       .  S
O1763      C1768   1.276       .  A
O1764     Ni1766   1.905       .  S
O1764      C1767   1.280       .  A
Ni1765    Ni1766   2.382       .  S
C1767      C1837   1.490       .  S
C1768      C1817   1.486       .  S
C1769      C1847   1.497       .  S
C1770      C1824   1.474       .  S
C1771      C1772   1.398       .  A
C1771      C1776   1.390       .  A
C1771      C1814   1.481       .  S
C1772      C1773   1.416       .  A
C1772      H1777   1.078       .  S
C1773      C1774   1.418       .  A
C1773      C1804   1.511       .  S
C1774      C1775   1.417       .  A
C1775      C1776   1.402       .  A
C1776      H1779   1.081       .  S
C1780      C1781   1.391       .  A
C1780      C1785   1.391       .  A
C1780      C1827   1.485       .  S
C1781      C1782   1.404       .  A
C1781      H1786   1.081       .  S
C1782      C1783   1.424       .  A
C1782      C1794   1.507       .  S
C1783      C1784   1.427       .  A
C1783      H1787   1.079       .  S
C1784      C1785   1.415       .  A
C1785      H1788   1.076       .  S
C1789      C1854   1.516       .  S
C1789      C1947   1.489       .  S
C1789      C1790   1.376   1_565  D
C1791      C1797   1.499       .  S
C1791      C2057   1.478       .  S
C1791      C1792   1.361       .  D
C1792      C1867   1.509       .  S
C1792      C1937   1.487       .  S
C1793      C1794   1.412       .  A
C1793      C1798   1.412       .  A
C1793      H1800   1.082       .  S
C1794      C1795   1.420       .  A
C1795      C1796   1.394       .  A
C1795     Br1802   1.929       .  S
C1796      C1797   1.399       .  A
C1796      H1801   1.079       .  S
C1797      C1798   1.412       .  A
C1798     Br1799   1.914       .  S
C1803      C1804   1.412       .  A
C1803      C1808   1.407       .  A
C1804      C1805   1.416       .  A
C1805      C1806   1.398       .  A
C1805     Br1812   1.924       .  S
C1806      C1807   1.403       .  A
C1806      H1811   1.071       .  S
C1807      C1808   1.412       .  A
C1813      C1814   1.401       .  A
C1813      C1818   1.391       .  A
C1813      H1820   1.084       .  S
C1814      C1815   1.405       .  A
C1815      C1816   1.405       .  A
C1815     Br1822   1.911       .  S
C1816      C1817   1.410       .  A
C1816      H1821   1.083       .  S
C1817      C1818   1.418       .  A
C1818     Br1819   1.926       .  S
C1823      C1824   1.399       .  A
C1823      C1828   1.402       .  A
C1823      H1830   1.084       .  S
C1824      C1825   1.410       .  A
C1825      C1826   1.397       .  A
C1825     Br1832   1.910       .  S
C1826      C1827   1.400       .  A
C1826      H1831   1.084       .  S
C1827      C1828   1.417       .  A
C1828     Br1829   1.921       .  S
C1833      C1834   1.404       .  A
C1833      C1838   1.409       .  A
C1833      H1840   1.083       .  S
C1834      C1835   1.409       .  A
C1835      C1836   1.392       .  A
C1835     Br1842   1.924       .  S
C1836      C1837   1.406       .  A
C1836      H1841   1.083       .  S
C1837      C1838   1.416       .  A
C1838     Br1839   1.918       .  S
C1843      C1844   1.402       .  A
C1843      C1848   1.394       .  A
C1843      H1850   1.084       .  S
C1844      C1845   1.409       .  A
C1845      C1846   1.408       .  A
C1845     Br1852   1.919       .  S
C1846      C1847   1.413       .  A
C1846      H1851   1.083       .  S
C1847      C1848   1.420       .  A
C1848     Br1849   1.926       .  S
C1853      C1854   1.401       .  A
C1853      C1858   1.401       .  A
C1854      C1855   1.414       .  A
C1855      C1856   1.406       .  A
C1855     Br1862   1.910       .  S
C1856      C1857   1.408       .  A
C1856      H1861   1.081       .  S
C1857      C1858   1.418       .  A
C1863      C1864   1.410       .  A
C1863      C1868   1.401       .  A
C1863      H1870   1.083       .  S
C1864      C1865   1.416       .  A
C1865      C1866   1.398       .  A
C1865     Br1872   1.924       .  S
C1866      C1867   1.409       .  A
C1866      H1871   1.082       .  S
C1867      C1868   1.414       .  A
C1868     Br1869   1.913       .  S
C1873      C1878   1.400       .  A
C1873      H1880   1.081       .  S
C1874      C1875   1.421       .  A
C1875     Br1882   1.922       .  S
C1876      C1877   1.401   1_455  A
C1876      H1881   1.084       .  S
C1877      C1878   1.409       .  A
C1878     Br1879   1.912       .  S
C1883      C1884   1.398   1_455  A
C1884      C1885   1.413       .  A
C1885      C1886   1.400       .  A
C1885     Br1892   1.913       .  S
C1886      H1891   1.084       .  S
C1887      C1888   1.415       .  A
C1888     Br1889   1.919       .  S
C1893      C1894   1.405       .  A
C1893      C1898   1.393       .  A
C1893      H1900   1.083       .  S
C1894      C1895   1.418       .  A
C1895      C1896   1.406       .  A
C1895     Br1902   1.920       .  S
C1896      C1897   1.401       .  A
C1896      H1901   1.082       .  S
C1897      C1898   1.407       .  A
C1898     Br1899   1.922       .  S
C1903      C1904   1.405       .  A
C1903      C1908   1.390       .  A
C1903      H1910   1.083       .  S
C1904      C1905   1.419       .  A
C1905      C1906   1.408       .  A
C1905     Br1912   1.919       .  S
C1906      C1907   1.402       .  A
C1906      H1911   1.083       .  S
C1907      C1908   1.407       .  A
C1908     Br1909   1.923       .  S
C1913      C1914   1.408       .  A
C1913      C1918   1.398   1_556  A
C1913      H1920   1.082       .  S
C1914      C1915   1.414   1_556  A
C1915      C1916   1.401       .  A
C1915     Br1922   1.912       .  S
C1916      C1917   1.410       .  A
C1916      H1921   1.083       .  S
C1917      C1918   1.416       .  A
C1923      C1924   1.412       .  A
C1923      C1928   1.413       .  A
C1923      H1930   1.083       .  S
C1924      C1925   1.421       .  A
C1925      C1926   1.398       .  A
C1925     Br1932   1.927       .  S
C1926      C1927   1.400       .  A
C1926      H1931   1.080       .  S
C1927      C1928   1.413       .  A
C1928     Br1929   1.915   1_556  S
C1933      C1934   1.407       .  A
C1933      C1938   1.385       .  A
C1933      H1940   1.083       .  S
C1934      C1935   1.413       .  A
C1935      C1936   1.409       .  A
C1935     Br1942   1.916       .  S
C1936      C1937   1.409       .  A
C1936      H1941   1.083       .  S
C1937      C1938   1.403       .  A
C1938     Br1939   1.916       .  S
C1943      C1944   1.396       .  A
C1943      C1948   1.397       .  A
C1943      H1950   1.084       .  S
C1944      C1945   1.409       .  A
C1945      C1946   1.391       .  A
C1946      C1947   1.404       .  A
C1947      C1948   1.420       .  A
C1948     Br1949   1.914       .  S
C1953      C1954   1.392       .  A
C1953      C1958   1.392       .  A
C1953      H1960   1.084       .  S
C1954      C1955   1.410       .  A
C1955      C1956   1.402       .  A
C1955     Br1962   1.919       .  S
C1956      C1957   1.403       .  A
C1956      H1961   1.083       .  S
C1957      C1958   1.421       .  A
C1958     Br1959   1.925       .  S
C1963      C1964   1.407       .  A
C1963      C1968   1.398       .  A
C1963      H1970   1.083       .  S
C1964      C1965   1.401       .  A
C1965      C1966   1.388       .  A
C1965     Br1972   1.922       .  S
C1966      C1967   1.413       .  A
C1966      H1971   1.083       .  S
C1967      C1968   1.411       .  A
C1968     Br1969   1.919       .  S
C1973      C1974   1.412       .  A
C1973      C1978   1.388       .  A
C1973      H1980   1.080       .  S
C1974      C1975   1.412       .  A
C1975      C1976   1.392       .  A
C1975     Br1982   1.922       .  S
C1976      C1977   1.402       .  A
C1976      H1981   1.082       .  S
C1977      C1978   1.402       .  A
C1978     Br1979   1.920       .  S
C1983      C1984   1.395       .  A
C1983      C1988   1.392       .  A
C1983      H1990   1.084       .  S
C1984      C1985   1.411       .  A
C1985      C1986   1.400       .  A
C1985     Br1992   1.918       .  S
C1986      C1987   1.400       .  A
C1986      H1991   1.083       .  S
C1987      C1988   1.413       .  A
C1988     Br1989   1.920       .  S
C1993      C1994   1.397       .  A
C1993      C1998   1.389       .  A
C1993      H2000   1.084       .  S
C1994      C1995   1.406       .  A
C1995      C1996   1.403       .  A
C1996      C1997   1.404       .  A
C1996      H2001   1.083       .  S
C1997      C1998   1.411       .  A
C1998     Br1999   1.923       .  S
C2003      C2004   1.409       .  A
C2003      C2008   1.403       .  A
C2003      H2010   1.082       .  S
C2004      C2005   1.417       .  A
C2005      C2006   1.405       .  A
C2005     Br2012   1.921       .  S
C2006      C2007   1.406       .  A
C2006      H2011   1.073       .  S
C2007      C2008   1.411       .  A
C2008     Br2009   1.915       .  S
C2013      C2014   1.408   1_556  A
C2013      C2018   1.408   1_556  A
C2013      H2020   1.078       .  S
C2014      C2015   1.415       .  A
C2015      C2016   1.396       .  A
C2015     Br2022   1.923       .  S
C2016      C2017   1.412       .  A
C2016      H2021   1.081       .  S
C2017      C2018   1.421       .  A
C2018     Br2019   1.917       .  S
C2023      C2024   1.405       .  A
C2023      C2028   1.396       .  A
C2023      H2030   1.084       .  S
C2025     Br2032   1.901       .  S
C2026      C2027   1.395       .  A
C2027      C2028   1.416       .  A
C2028     Br2029   1.923       .  S
C2033      C2034   1.404       .  A
C2033      C2038   1.404   1_554  A
C2033      H2040   1.083       .  S
C2035      C2036   1.392       .  A
C2035     Br2042   1.925       .  S
C2036      H2041   1.077       .  S
C2037      C2038   1.418   1_564  A
C2038     Br2039   1.923       .  S
C2043      C2044   1.406       .  A
C2043      C2048   1.387   1_655  A
C2043      H2050   1.084       .  S
C2044      C2045   1.412       .  A
C2045      C2046   1.408   1_554  A
C2045     Br2052   1.916   1_554  S
C2046      C2047   1.408   1_656  A
C2046      H2051   1.083       .  S
C2047      C2048   1.404       .  A
C2053      C2054   1.413       .  A
C2053      C2058   1.390       .  A
C2053      H2060   1.080       .  S
C2054      C2055   1.414       .  A
C2055      C2056   1.394       .  A
C2055     Br2062   1.922       .  S
C2056      C2057   1.403       .  A
C2056      H2061   1.082       .  S
C2057      C2058   1.403       .  A
C2058     Br2059   1.920       .  S
C2063      C2064   1.405       .  A
C2063      C2068   1.398       .  A
C2063      H2070   1.082       .  S
C2064      C2065   1.400       .  A
C2065      C2066   1.390       .  A
C2065     Br2072   1.921   1_655  S
C2066      C2067   1.413       .  A
C2066      H2071   1.083       .  S
C2067      C2068   1.410       .  A
C2068     Br2069   1.919       .  S
C2073      C2074   1.401       .  A
C2073      C2078   1.405       .  A
C2073      H2080   1.084       .  S
C2074      C2075   1.407       .  A
C2075      C2076   1.391       .  A
C2075     Br2082   1.907       .  S
C2076      C2077   1.401       .  A
C2076      H2081   1.084       .  S
C2077      C2078   1.418       .  A
C2078     Br2079   1.919       .  S
C2083      C2084   1.409       .  A
C2083      C2088   1.401       .  A
C2083      H2090   1.084       .  S
C2084      C2085   1.405       .  A
C2085      C2086   1.394       .  A
C2085     Br2092   1.920       .  S
C2086      C2087   1.405       .  A
C2086      H2091   1.084       .  S
C2087      C2088   1.402       .  A
C2088     Br2089   1.917       .  S
C2093      C2098   1.403       .  A
C2093      H2100   1.083       .  S
C2094      C2095   1.417   1_545  A
C2095      C2096   1.387       .  A
C2095     Br2102   1.921   1_565  S
C2096      C2097   1.397       .  A
C2096      H2101   1.084   1_655  S
C2098     Br2099   1.919       .  S
C2103      C2104   1.400       .  A
C2103      C2108   1.392       .  A
C2103      H2110   1.084       .  S
C2104      C2105   1.405       .  A
C2105      C2106   1.401       .  A
C2105     Br2112   1.917       .  S
C2106      C2107   1.406       .  A
C2106      H2111   1.083   1_565  S
C2107      C2108   1.410       .  A
C2108     Br2109   1.922       .  S
