geometry optimzed in LAMMPS
_audit_creation_date              2020-11-30 
_audit_creation_method            'lammps2cif' 
_symmetry_space_group_name_H-M    'P1' 
_symmetry_Int_Tables_number       1 
_symmetry_cell_setting            triclinic 
loop_ 
_symmetry_equiv_pos_as_xyz 
  x,y,z 
_cell_length_a                    43.98697152 
_cell_length_b                    44.01504362776996 
_cell_length_c                    53.913965064192894 
_cell_angle_alpha                 90.03244968469471 
_cell_angle_beta                  89.99643875159558 
_cell_angle_gamma                 120.01018518674447 
loop_ 
_atom_site_label 
_atom_site_type_symbol 
_atom_site_fract_x 
_atom_site_fract_y 
_atom_site_fract_z 
_atom_site_charge 
C1          C  0.07546237  0.42811726  0.91520474     0.89500
C2          C  0.05423166  0.39350823  0.92935964    -0.50800
C3          C  0.07186650  0.37553507  0.93251680     0.12400
C4          C  0.10901278  0.39380227  0.92117968     0.23300
C5          C  0.10986388  0.44876778  0.92973613    -0.51500
C6          C  0.12746654  0.43074240  0.93286770     0.12500
C7          C  0.08584622  0.41802396  0.89090201    -0.51000
C8          C  0.10322238  0.40011101  0.89393159     0.13100
H9          H  0.02775065  0.38404967  0.93617166     0.17600
H10         H  0.12330327  0.37913485  0.92362146     0.03300
H11         H  0.11948008  0.47515570  0.93677764     0.17900
H12         H  0.07967061  0.42422724  0.87273221     0.17700
C13         C  0.33328053  0.42786453  0.91547520     0.89500
C14         C  0.31968443  0.44883923  0.92974779    -0.50800
C15         C  0.28404795  0.43103146  0.93287213     0.12400
C16         C  0.26536220  0.39397772  0.92137490     0.23300
C17         C  0.31966071  0.39340117  0.92986545    -0.51500
C18         C  0.28400480  0.37561676  0.93296105     0.12500
C19         C  0.31285134  0.41756273  0.89115301    -0.51000
C20         C  0.27754012  0.40000192  0.89413236     0.13100
H21         H  0.33658608  0.47527871  0.93666072     0.17600
H22         H  0.23638357  0.37954273  0.92378048     0.03300
H23         H  0.33654004  0.38387337  0.93683478     0.17900
H24         H  0.32528323  0.42388502  0.87299826     0.17700
C25         C  0.07487873  0.16989397  0.91546818     0.89500
C26         C  0.10952108  0.18357224  0.92966455    -0.50800
C27         C  0.12733362  0.21919470  0.93271660     0.12400
C28         C  0.10887801  0.23779147  0.92124312     0.23300
C29         C  0.05404635  0.18353564  0.92987641    -0.51500
C30         C  0.07189513  0.21918411  0.93289777     0.12500
C31         C  0.08489177  0.19019315  0.89110440    -0.51000
C32         C  0.10264658  0.22549897  0.89402493     0.13100
H33         H  0.11913826  0.16673720  0.93655832     0.17600
H34         H  0.12341805  0.26676270  0.92359887     0.03300
H35         H  0.02765567  0.16667994  0.93689716     0.17900
H36         H  0.07877308  0.17768397  0.87297249     0.17700
O37         O  0.16085681  0.39027581  0.76462009    -0.78800
C38         C  0.13413452  0.28030531  0.82965335     1.00500
O39         O  0.11139465  0.27922185  0.81485827    -0.67900
O40         O  0.11220958  0.33667613  0.82457045    -0.71500
Al41       Al  0.11464529  0.31645700  0.79441057     1.49000
C42         C  0.12695515  0.36873417  0.82967375     0.95800
O43         O  0.20540900  0.39084525  0.82455857    -0.77800
O44         O  0.21039624  0.34209369  0.76470181    -0.71300
Al45       Al  0.18267632  0.38833360  0.79442459     1.90100
O46         O  0.22372753  0.35430526  0.81503123    -0.70400
O47         O  0.15434043  0.28107114  0.77442552    -0.70200
O48         O  0.16622372  0.29764647  0.82461066    -0.75900
O49         O  0.11272552  0.29277303  0.76458018    -0.74100
O50         O  0.16130158  0.34171269  0.79401854    -1.10200
O51         O  0.10754717  0.34868478  0.77445698    -0.69400
C52         C  0.12810733  0.37495709  0.76146718     1.01300
C53         C  0.22268681  0.37608761  0.82972219     0.97700
Al54       Al  0.18655527  0.32033146  0.79448121     1.55600
O55         O  0.14867720  0.39151484  0.81493951    -0.74100
C56         C  0.12809856  0.27541539  0.76138862     1.01900
C57         C  0.22770036  0.37480513  0.76145706     0.96700
O58         O  0.22195274  0.39538337  0.77440957    -0.79400
C59         C  0.24869422  0.48484790  0.97369278     0.05300
C60         C  0.21651586  0.48462374  0.97369132     0.05200
C61         C  0.21243675  0.00799050  0.98915607    -0.15300
C62         C  0.23974909  0.03159555  0.00462333     0.05300
C63         C  0.27189093  0.03174628  0.00468057     0.05200
C64         C  0.27597362  0.00837197  0.98920964    -0.15300
H65         H  0.30073455  0.00853354  0.98922700     0.07300
H66         H  0.18768789  0.00785398  0.98911940     0.07300
C67         C  0.15509009  0.08897569  0.06222215     0.89500
C68         C  0.16879522  0.12353531  0.04795057    -0.50800
C69         C  0.20444402  0.14129540  0.04489736     0.12400
C70         C  0.22302767  0.12287225  0.05645565     0.23300
C71         C  0.16870431  0.06806203  0.04788628    -0.51500
C72         C  0.20437245  0.08586203  0.04486425     0.12500
C73         C  0.17542441  0.09908650  0.08658426    -0.51000
C74         C  0.21074501  0.11676732  0.08367317     0.13100
H75         H  0.15195838  0.13312432  0.04099750     0.17600
H76         H  0.25201562  0.13735950  0.05410760     0.03300
H77         H  0.15181494  0.04165854  0.04090748     0.17900
H78         H  0.16292364  0.09302339  0.10471563     0.17700
C79         C  0.41321210  0.34711787  0.06257616     0.89500
C80         C  0.43443401  0.33371749  0.04840171    -0.50800
C81         C  0.41679748  0.29810897  0.04524148     0.12400
C82         C  0.37966339  0.27925175  0.05660638     0.23300
C83         C  0.37879263  0.33334510  0.04806156    -0.51500
C84         C  0.36119094  0.29771737  0.04493286     0.12500
C85         C  0.40285600  0.32668042  0.08688055    -0.51000
C86         C  0.38547015  0.29139142  0.08385742     0.13100
H87         H  0.46089566  0.35072813  0.04155983     0.17600
H88         H  0.36536985  0.25029499  0.05416540     0.03300
H89         H  0.36916149  0.35010294  0.04103314     0.17900
H90         H  0.40901253  0.33908652  0.10504813     0.17700
C91         C  0.41368986  0.08968816  0.06248116     0.89500
C92         C  0.37905935  0.06860108  0.04828844    -0.50800
C93         C  0.36119561  0.08634420  0.04514083     0.12400
C94         C  0.37959141  0.12346102  0.05651527     0.23300
C95         C  0.43448214  0.12407206  0.04799312    -0.51500
C96         C  0.41657805  0.14180162  0.04486616     0.12500
C97         C  0.40363205  0.10010309  0.08678602    -0.51000
C98         C  0.38582000  0.11758278  0.08376483     0.13100
H99         H  0.36947984  0.04211095  0.04147513     0.17600
H100        H  0.36500488  0.13783418  0.05407983     0.03300
H101        H  0.46087938  0.13359009  0.04098397     0.17900
H102        H  0.40973300  0.09381936  0.10495288     0.17700
O103        O  0.37550329  0.17458203  0.21322966    -0.78800
C104        C  0.26548721  0.14785290  0.14812782     1.00500
O105        O  0.26445255  0.12509334  0.16285277    -0.67900
O106        O  0.32200120  0.12603833  0.15312937    -0.71500
Al107      Al  0.30172324  0.12835907  0.18330628     1.49000
C108        C  0.35409510  0.14079671  0.14808705     0.95800
O109        O  0.37611731  0.21907051  0.15328688    -0.77800
O110        O  0.32739091  0.22410119  0.21314289    -0.71300
Al111      Al  0.37361047  0.19637432  0.18341507     1.90100
O112        O  0.33949737  0.23732819  0.16279431    -0.70400
O113        O  0.26633966  0.16801358  0.20344891    -0.70200
O114        O  0.28278380  0.17989902  0.15325147    -0.75900
O115        O  0.27798533  0.12632961  0.21312847    -0.74100
O116        O  0.32695789  0.17499332  0.18378425    -1.10200
O117        O  0.33399001  0.12128670  0.20327046    -0.69400
C118        C  0.36019497  0.14184937  0.21634638     1.01300
C119        C  0.36134084  0.23633315  0.14813032     0.97700
Al120      Al  0.30555139  0.20021557  0.18336775     1.55600
O121        O  0.37683761  0.16239136  0.16291890    -0.74100
C122        C  0.26067260  0.14173265  0.21641076     1.01900
C123        C  0.36013298  0.24146903  0.21633926     0.96700
O124        O  0.38069211  0.23567438  0.20340102    -0.79400
C125        C  0.01760125  0.25439496  0.97324809     0.05300
C126        C  0.01757768  0.28643077  0.97320906     0.05200
C127        C  0.49422960  0.29042076  0.98877388    -0.15300
C128        C  0.47084295  0.26312355  0.00433018     0.05300
C129        C  0.47071124  0.23100985  0.00425071     0.05200
C130        C  0.49412117  0.22705929  0.98873308    -0.15300
H131        H  0.49408736  0.20237790  0.98872375     0.07300
H132        H  0.49427533  0.31510937  0.98879217     0.07300
C133        C  0.21660514  0.25413837  0.97324615     0.05300
C134        C  0.24870415  0.28616133  0.97333606     0.05200
C135        C  0.27603427  0.28991264  0.98880020    -0.15300
C136        C  0.27202849  0.26246657  0.00421846     0.05300
C137        C  0.23988435  0.23048481  0.00420042     0.05200
C138        C  0.21257866  0.22669703  0.98868555    -0.15300
H139        H  0.18784964  0.20207401  0.98864335     0.07300
H140        H  0.30075376  0.31454339  0.98885303     0.07300
C141        C  0.48893005  0.25554472  0.39588454     0.89500
C142        C  0.50235665  0.29009939  0.38165737    -0.50800
C143        C  0.03798144  0.30804426  0.37849446     0.12400
C144        C  0.05682764  0.28980086  0.38989686     0.23300
C145        C  0.50264018  0.23481852  0.38141822    -0.51500
C146        C  0.03828693  0.25281673  0.37827794     0.12500
C147        C  0.00942206  0.26572153  0.42018286    -0.51000
C148        C  0.04472666  0.28359565  0.41714864     0.13100
H149        H  0.48535443  0.29955103  0.37481156     0.17600
H150        H  0.08579933  0.30444397  0.38745073     0.03300
H151        H  0.48583046  0.20840780  0.37442391     0.17900
H152        H  0.99704102  0.25957870  0.43835460     0.17700
C153        C  0.24720240  0.25609198  0.39567260     0.89500
C154        C  0.21258678  0.23504629  0.38144498    -0.50800
C155        C  0.19472307  0.25280069  0.37832448     0.12400
C156        C  0.21310198  0.28987791  0.38978150     0.23300
C157        C  0.26800570  0.29053174  0.38124162    -0.51500
C158        C  0.25009446  0.30826230  0.37815404     0.12500
C159        C  0.23711613  0.26642342  0.41999722    -0.51000
C160        C  0.21933405  0.28393569  0.41701997     0.13100
H161        H  0.20304703  0.20859999  0.37455529     0.17600
H162        H  0.19852865  0.30426991  0.38737996     0.03300
H163        H  0.29441544  0.30008673  0.37424641     0.17900
H164        H  0.24327602  0.26015741  0.43815074     0.17700
C165        C  0.24660050  0.01387059  0.39574189     0.89500
C166        C  0.26764875  0.00031712  0.38151518    -0.50800
C167        C  0.24990744  0.46469350  0.37843627     0.12400
C168        C  0.21283152  0.44598423  0.38989933     0.23300
C169        C  0.21210767  0.00015033  0.38133044    -0.51500
C170        C  0.19438868  0.46451823  0.37826268     0.12500
C171        C  0.23634295  0.49352326  0.42008455    -0.51000
C172        C  0.21885726  0.45822284  0.41713118     0.13100
H173        H  0.29410598  0.01723115  0.37462761     0.17600
H174        H  0.19844957  0.41701786  0.38751495     0.03300
H175        H  0.20251829  0.01695514  0.37432513     0.17900
H176        H  0.24270069  0.50599724  0.43822862     0.17700
O177        O  0.11216396  0.29332450  0.54645646    -0.78800
C178        C  0.19552546  0.40339307  0.48149860     1.00500
O179        O  0.17378322  0.40441765  0.49624302    -0.67900
O180        O  0.11712747  0.34695893  0.48655028    -0.71500
Al181      Al  0.13978443  0.36719522  0.51671101     1.49000
C182        C  0.09981856  0.31490913  0.48142824     0.95800
O183        O  0.15625733  0.29297931  0.48652372    -0.77800
O184        O  0.20982993  0.34158284  0.54652196    -0.71300
Al185      Al  0.13596664  0.29535749  0.51665967     1.90100
O186        O  0.21111380  0.32946153  0.49618109    -0.70400
O187        O  0.21488039  0.40263711  0.53677481    -0.70200
O188        O  0.21031488  0.38612160  0.48659670    -0.75900
O189        O  0.16153393  0.39094094  0.54653699    -0.74100
O190        O  0.16120696  0.34198478  0.51712103    -1.10200
O191        O  0.10046533  0.33492998  0.53668330    -0.69400
C192        C  0.09475522  0.30864359  0.54964968     1.01300
C193        C  0.18832803  0.30775750  0.48142173     0.97700
Al194      Al  0.20786417  0.36339682  0.51672647     1.55600
O195        O  0.09876342  0.29213283  0.49615033    -0.74100
C196        C  0.19427318  0.40831952  0.54975673     1.01900
C197        C  0.19443736  0.30885686  0.54970580     0.96700
O198        O  0.16818763  0.28829702  0.53666913    -0.79400
C199        C  0.16582359  0.09404272  0.24881736     0.89500
C200        C  0.15225149  0.11511870  0.26296979    -0.50800
C201        C  0.11661602  0.09737410  0.26605441     0.12400
C202        C  0.09789938  0.06026648  0.25465356     0.23300
C203        C  0.15214582  0.05964694  0.26329438    -0.51500
C204        C  0.11648477  0.04191483  0.26635580     0.12500
C205        C  0.14544110  0.08365596  0.22447534    -0.51000
C206        C  0.11012453  0.06616977  0.22742373     0.13100
H207        H  0.16916645  0.14159385  0.26981639     0.17600
H208        H  0.06891701  0.04588862  0.25703448     0.03300
H209        H  0.16898925  0.05012312  0.27034444     0.17900
H210        H  0.15790702  0.08994642  0.20633150     0.17700
C211        C  0.40766917  0.33654990  0.24857334     0.89500
C212        C  0.44224574  0.34995208  0.26282163    -0.50800
C213        C  0.46023923  0.38556029  0.26598178     0.12400
C214        C  0.44202537  0.40441720  0.25454753     0.23300
C215        C  0.38697326  0.35031980  0.26301665    -0.51500
C216        C  0.40501698  0.38594898  0.26614570     0.12500
C217        C  0.41787332  0.35699429  0.22426890    -0.51000
C218        C  0.43580704  0.39228527  0.22729421     0.13100
H219        H  0.45166613  0.33294531  0.26969422     0.17600
H220        H  0.45670843  0.43337373  0.25699053     0.03300
H221        H  0.36054084  0.33355908  0.26999877     0.17900
H222        H  0.41170434  0.34459061  0.20610105     0.17700
C223        C  0.40799660  0.09473537  0.24870060     0.89500
C224        C  0.38704611  0.06018666  0.26297433    -0.50800
C225        C  0.40488604  0.04240735  0.26608798     0.12400
C226        C  0.44194350  0.06079889  0.25459507     0.23300
C227        C  0.44250467  0.11563807  0.26308387    -0.51500
C228        C  0.46031773  0.09781069  0.26617421     0.12500
C229        C  0.41827670  0.08459598  0.22437599    -0.51000
C230        C  0.43586766  0.06689327  0.22736066     0.13100
H231        H  0.36058930  0.05061335  0.26987755     0.17600
H232        H  0.45640134  0.04629112  0.25699669     0.03300
H233        H  0.45203992  0.14204686  0.27005009     0.17900
H234        H  0.41190700  0.09064733  0.20622087     0.17700
O235        O  0.49357896  0.05730034  0.09802936    -0.78800
C236        C  0.46709184  0.44735690  0.16302295     1.00500
O237        O  0.44423948  0.44628515  0.14833665    -0.67900
O238        O  0.44491587  0.00368137  0.15791216    -0.71500
Al239      Al  0.44734557  0.48337778  0.12778391     1.49000
C240        C  0.45966676  0.03572716  0.16303366     0.95800
O241        O  0.03808231  0.05767730  0.15794102    -0.77800
O242        O  0.04291376  0.00909177  0.09785272    -0.71300
Al243      Al  0.01538575  0.05529546  0.12780419     1.90100
O244        O  0.05657180  0.02136488  0.14814665    -0.70400
O245        O  0.48704670  0.44799041  0.10776602    -0.70200
O246        O  0.49915166  0.46467856  0.15787230    -0.75900
O247        O  0.44531742  0.45953253  0.09799484    -0.74100
O248        O  0.49399600  0.00866571  0.12734402    -1.10200
O249        O  0.44026107  0.01555863  0.10774798    -0.69400
C250        C  0.46083940  0.04188933  0.09480420     1.01300
C251        C  0.05542385  0.04294402  0.16298192     0.97700
Al252      Al  0.01930004  0.48734264  0.12770499     1.55600
O253        O  0.48141887  0.05850732  0.14832229    -0.74100
C254        C  0.46069830  0.44218205  0.09481277     1.01900
C255        C  0.06026881  0.04181742  0.09466995     0.96700
O256        O  0.05466335  0.06238254  0.10775857    -0.79400
C257        C  0.07350641  0.19891651  0.33754798     0.05300
C258        C  0.10550080  0.19877105  0.33755832     0.05200
C259        C  0.10929834  0.17527218  0.32203497    -0.15300
C260        C  0.08185511  0.15187204  0.30655091     0.05300
C261        C  0.04983307  0.15195965  0.30659838     0.05200
C262        C  0.04606887  0.17550661  0.32207745    -0.15300
H263        H  0.02143090  0.17559112  0.32210307     0.07300
H264        H  0.13392857  0.17517063  0.32202086     0.07300
C265        C  0.30412893  0.39765682  0.33771091     0.05300
C266        C  0.30412556  0.42970337  0.33780770     0.05200
C267        C  0.32752981  0.45709814  0.32232414    -0.15300
C268        C  0.35097867  0.45325113  0.30677615     0.05300
C269        C  0.35107982  0.42125454  0.30675881     0.05200
C270        C  0.32763285  0.39384553  0.32220667    -0.15300
H271        H  0.32767334  0.36920043  0.32215819     0.07300
H272        H  0.32748316  0.48174047  0.32236689     0.07300
C273        C  0.07284972  0.39716839  0.33783241     0.05300
C274        C  0.10491287  0.42923342  0.33782494     0.05200
C275        C  0.10874513  0.45660036  0.32239310    -0.15300
C276        C  0.08135128  0.45265954  0.30691155     0.05300
C277        C  0.04935862  0.42052764  0.30681720     0.05200
C278        C  0.04547908  0.39319234  0.32230667    -0.15300
H279        H  0.02082935  0.36848811  0.32227330     0.07300
H280        H  0.13339601  0.48130094  0.32242091     0.07300
C281        C  0.32262756  0.42226614  0.72909109     0.89500
C282        C  0.33603897  0.45687550  0.71493755    -0.50800
C283        C  0.37167076  0.47487698  0.71181272     0.12400
C284        C  0.39053870  0.45663409  0.72318627     0.23300
C285        C  0.33641534  0.40164377  0.71458463    -0.51500
C286        C  0.37206814  0.41969161  0.71149059     0.12500
C287        C  0.34306162  0.43236628  0.75341340    -0.51000
C288        C  0.37837251  0.45031085  0.75042646     0.13100
H289        H  0.31902105  0.46631478  0.70810391     0.17600
H290        H  0.41951551  0.47132449  0.72077503     0.03300
H291        H  0.31964994  0.37525219  0.70753958     0.17900
H292        H  0.33063448  0.42615252  0.77156974     0.17700
C293        C  0.08034610  0.18052146  0.72907174     0.89500
C294        C  0.10136132  0.16690074  0.71489132    -0.50800
C295        C  0.08356961  0.13128040  0.71182787     0.12400
C296        C  0.04648000  0.11262759  0.72327311     0.23300
C297        C  0.04587655  0.16684102  0.71463878    -0.51500
C298        C  0.02809835  0.13119625  0.71160024     0.08300
C299        C  0.07002781  0.16020835  0.75342684    -0.51000
C300        C  0.05248583  0.12490653  0.75049441     0.13100
H301        H  0.12783182  0.18377348  0.70801128     0.17600
H302        H  0.03206077  0.08365794  0.72090810     0.03300
H303        H  0.03633206  0.18367047  0.70760806     0.17900
H304        H  0.07636708  0.17270592  0.77156337     0.17700
C305        C  0.08088467  0.42277868  0.72921194     0.89500
C306        C  0.04632783  0.40178581  0.71490824    -0.50800
C307        C  0.02850271  0.41957144  0.71175129     0.12400
C308        C  0.04685316  0.45661935  0.72323932     0.23300
C309        C  0.10177138  0.45724635  0.71482541    -0.51500
C310        C  0.08389511  0.47500322  0.71169468     0.12500
C311        C  0.07069874  0.43307095  0.75351536    -0.51000
C312        C  0.05293851  0.45060214  0.75048959     0.13100
H313        H  0.03678944  0.37534436  0.70800641     0.17600
H314        H  0.03230511  0.47103072  0.72080093     0.03300
H315        H  0.12820341  0.46679149  0.70787868     0.17900
H316        H  0.07674940  0.42674139  0.77168376     0.17700
O317        O  0.04328243  0.00830074  0.87981122    -0.78800
C318        C  0.43323664  0.48172550  0.81480687     1.00500
O319        O  0.43212046  0.45894649  0.82955742    -0.67900
O320        O  0.48956030  0.45967073  0.81988435    -0.71500
Al321      Al  0.46933145  0.46212429  0.85003983     1.49000
C322        C  0.02162574  0.47441767  0.81475836     0.95800
O323        O  0.04367656  0.05283434  0.81994600    -0.77800
O324        O  0.49500537  0.05767738  0.87993409    -0.71300
Al325      Al  0.04125976  0.03011298  0.85005208     1.90100
O326        O  0.50723980  0.07122047  0.82965030    -0.70400
O327        O  0.43389756  0.00176209  0.87007698    -0.70200
O328        O  0.45055178  0.01377994  0.81993360    -0.75900
O329        O  0.44559391  0.46016240  0.87986947    -0.74100
O330        O  0.49460610  0.00873997  0.85048811    -1.10200
O331        O  0.00156704  0.45503637  0.87000573    -0.69400
C332        C  0.02791118  0.47558377  0.88296866     1.01300
C333        C  0.02893137  0.07015200  0.81488076     0.97700
Al334      Al  0.47322559  0.03399175  0.85010312     1.55600
O335        O  0.04443108  0.99616364  0.82948555    -0.74100
C336        C  0.42821670  0.47551572  0.88307160     1.01900
C337        C  0.02774636  0.07500997  0.88315232     0.96700
O338        O  0.04833474  0.06934760  0.87012996    -0.79400
C339        C  0.24153799  0.00327252  0.58206203     0.89500
C340        C  0.27620562  0.01684331  0.59621622    -0.50800
C341        C  0.29409814  0.05246069  0.59931559     0.12400
C342        C  0.27570580  0.07115991  0.58791105     0.23300
C343        C  0.22081539  0.01697708  0.59654930    -0.51500
C344        C  0.23876929  0.05262150  0.59961155     0.12500
C345        C  0.25153424  0.02362297  0.55772334    -0.51000
C346        C  0.26935215  0.05891987  0.56068374     0.13100
H347        H  0.28573133  0.49992591  0.60310713     0.17600
H348        H  0.29030813  0.10012615  0.59029876     0.03300
H349        H  0.19442651  0.50017009  0.60358804     0.17900
H350        H  0.24528956  0.01115407  0.53957673     0.17700
C351        C  0.49973938  0.26089224  0.58198083     0.89500
C352        C  0.48627349  0.28202687  0.59618281    -0.50800
C353        C  0.45065226  0.26432395  0.59935636     0.12400
C354        C  0.43184340  0.22719710  0.58799443     0.23300
C355        C  0.48609175  0.22651456  0.59648115    -0.51500
C356        C  0.45044650  0.20882803  0.59963615     0.12500
C357        C  0.47922583  0.25047925  0.55768996    -0.51000
C358        C  0.44392071  0.23303210  0.56073387     0.13100
H359        H  0.00324607  0.30851291  0.60299081     0.17600
H360        H  0.40287367  0.21285345  0.59045101     0.03300
H361        H  0.00294345  0.21697043  0.60347950     0.17900
H362        H  0.49159519  0.25670895  0.53951422     0.17700
C363        C  0.24192920  0.26150909  0.58215257     0.89500
C364        C  0.22093789  0.22697362  0.59644139    -0.50800
C365        C  0.23872195  0.20913216  0.59954635     0.12400
C366        C  0.27576721  0.22745702  0.58802481     0.23300
C367        C  0.27645713  0.28236059  0.59651452    -0.51500
C368        C  0.29421804  0.26448257  0.59959380     0.12500
C369        C  0.25214195  0.25131505  0.55782243    -0.51000
C370        C  0.26966884  0.23354597  0.56078890     0.13100
H371        H  0.19449834  0.21745575  0.60336110     0.17600
H372        H  0.29018152  0.21290487  0.59041773     0.03300
H373        H  0.28604854  0.30878349  0.60347411     0.17900
H374        H  0.24576117  0.25737048  0.53967204     0.17700
O375        O  0.37651742  0.17551964  0.43137560    -0.78800
C376        C  0.29314860  0.20224206  0.49637066     1.00500
O377        O  0.31489210  0.22501839  0.48164648    -0.67900
O378        O  0.37154659  0.22418837  0.49133128    -0.71500
Al379      Al  0.34889615  0.22178795  0.46116501     1.49000
C380        C  0.38883414  0.20941925  0.49644110     0.95800
O381        O  0.33237133  0.13107686  0.49126059    -0.77800
O382        O  0.27884730  0.12617509  0.43126931    -0.71300
Al383      Al  0.35268917  0.15375137  0.46115047     1.90100
O384        O  0.27752495  0.11273861  0.48158889    -0.70400
O385        O  0.27380563  0.18217828  0.44106675    -0.70200
O386        O  0.27834663  0.17019458  0.49122965    -0.75900
O387        O  0.32715984  0.22380870  0.43133900    -0.74100
O388        O  0.32746295  0.17516071  0.46071087    -1.10200
O389        O  0.38821484  0.22882168  0.44118937    -0.69400
C390        C  0.39392410  0.20824109  0.42820419     1.01300
C391        C  0.30029540  0.11378315  0.49633946     0.97700
Al392      Al  0.28080392  0.14994035  0.46108377     1.55600
O393        O  0.38988411  0.18769873  0.48169394    -0.74100
C394        C  0.29442323  0.20845025  0.42809524     1.01900
C395        C  0.29421051  0.10880613  0.42808323     0.96700
O396        O  0.32046608  0.11449034  0.44110850    -0.79400
C397        C  0.43938707  0.36567408  0.67089084     0.05300
C398        C  0.40738243  0.36579802  0.67084271     0.05200
C399        C  0.37996594  0.34233885  0.65537678    -0.15300
C400        C  0.38377702  0.31878924  0.63992767     0.05300
C401        C  0.41584041  0.31878184  0.63988429     0.05200
C402        C  0.44324708  0.34220768  0.65537726    -0.15300
H403        H  0.46789750  0.34214625  0.65538257     0.07300
H404        H  0.35530764  0.34238181  0.65538557     0.07300
C405        C  0.13790823  0.09638322  0.67128053     0.05300
C406        C  0.13797407  0.06437158  0.67122756     0.05200
C407        C  0.16149502  0.06057339  0.65573769    -0.15300
C408        C  0.18490373  0.08796737  0.64026357     0.05300
C409        C  0.18477522  0.11995318  0.64025675     0.05200
C410        C  0.16129809  0.12377960  0.65578951    -0.15300
H411        H  0.16121077  0.14840168  0.65580997     0.07300
H412        H  0.16156655  0.03594382  0.65571174     0.07300
C413        C  0.40655410  0.06405811  0.67119111     0.05300
C414        C  0.43866672  0.09606919  0.67116949     0.05200
C415        C  0.44258277  0.12346193  0.65573064    -0.15300
C416        C  0.41522091  0.11959641  0.64024792     0.05300
C417        C  0.38317562  0.08751602  0.64016482     0.05200
C418        C  0.37921102  0.06015820  0.65566821    -0.15300
H419        H  0.35452341  0.03549199  0.65563882     0.07300
H420        H  0.46727524  0.14812017  0.65575147     0.07300
C421        C  0.27992980  0.22135172  0.53944368    -0.10300
C422        C  0.28595384  0.21276275  0.51970161    -0.11900
C423        C  0.32742836  0.27974137  0.61259354    -0.10300
C424        C  0.35428668  0.29576316  0.62437103    -0.11900
C425        C  0.22342072  0.17600803  0.61260898    -0.10300
C426        C  0.20754146  0.14929444  0.62452519    -0.11900
C427        C  0.40662014  0.21665426  0.51974691    -0.10300
C428        C  0.42134979  0.22272185  0.53944577    -0.11900
C429        C  0.43292133  0.27979669  0.61233364    -0.10300
C430        C  0.42222519  0.29584805  0.62419617    -0.11900
C431        C  0.42168982  0.14900859  0.62463974    -0.10300
C432        C  0.43251412  0.17576337  0.61277511    -0.11900
C433        C  0.28130223  0.08134872  0.53934307    -0.10300
C434        C  0.28975627  0.09599793  0.51962355    -0.11900
C435        C  0.32723762  0.07026487  0.61239013    -0.10300
C436        C  0.35391050  0.08103325  0.62436809    -0.11900
C437        C  0.20783584  0.08155416  0.62458771    -0.10300
C438        C  0.22369088  0.07063862  0.61271417    -0.11900
C439        C  0.04074048  0.46095655  0.77178100    -0.10300
C440        C  0.03213093  0.46709887  0.79147037    -0.11900
C441        C  0.49539337  0.40428566  0.69863746    -0.10300
C442        C  0.46870450  0.38842210  0.68666718    -0.11900
C443        C  0.09913061  0.00814165  0.69865606    -0.10300
C444        C  0.11506197  0.03493496  0.68683242    -0.11900
C445        C  0.03613194  0.08790593  0.79158392    -0.10300
C446        C  0.04218199  0.10251647  0.77185393    -0.11900
C447        C  0.49492240  0.11324044  0.69856276    -0.10300
C448        C  0.46809839  0.10244805  0.68675403    -0.11900
C449        C  0.09893047  0.11343706  0.69886361    -0.10300
C450        C  0.11496435  0.10273154  0.68698900    -0.11900
C451        C  0.40086184  0.46255402  0.77175401    -0.10300
C452        C  0.41551041  0.47119039  0.79148146    -0.11900
C453        C  0.38934591  0.00803676  0.69880054    -0.10300
C454        C  0.40005893  0.03474028  0.68690152    -0.11900
C455        C  0.40098574  0.38877234  0.68648354    -0.10300
C456        C  0.39012107  0.40466831  0.69836161    -0.11900
C457        C  0.45238454  0.04624025  0.18632605    -0.10300
C458        C  0.44624983  0.05478842  0.20603935    -0.11900
C459        C  0.49350516  0.11307861  0.27920183    -0.10300
C460        C  0.02034487  0.12903064  0.29100771    -0.11900
C461        C  0.38962274  0.00928447  0.27913652    -0.10300
C462        C  0.37374937  0.48258740  0.29105208    -0.11900
C463        C  0.44803423  0.41480707  0.20599865    -0.10300
C464        C  0.45663009  0.42954400  0.18631042    -0.11900
C465        C  0.49336863  0.40324210  0.27907958    -0.10300
C466        C  0.02005267  0.41398896  0.29104313    -0.11900
C467        C  0.37405012  0.41486775  0.29109963    -0.10300
C468        C  0.38994966  0.40398971  0.27923655    -0.11900
C469        C  0.07310746  0.05001554  0.18631812    -0.10300
C470        C  0.08769042  0.05594442  0.20606709    -0.11900
C471        C  0.09853476  0.00882455  0.27945903    -0.10300
C472        C  0.08773505  0.48205499  0.29131707    -0.11900
C473        C  0.09881757  0.11279845  0.27900170    -0.10300
C474        C  0.08815850  0.12888366  0.29086176    -0.11900
C475        C  0.20870089  0.43720413  0.56686133    -0.10300
C476        C  0.22262133  0.46542008  0.57701137    -0.11900
C477        C  0.20878113  0.29437855  0.56685552    -0.10300
C478        C  0.22297434  0.28040123  0.57706313    -0.11900
C479        C  0.03759016  0.27982576  0.57685266    -0.10300
C480        C  0.06581531  0.29414554  0.56670664    -0.11900
C481        C  0.26554895  0.05172542  0.40079831    -0.10300
C482        C  0.27980281  0.07993500  0.41096207    -0.11900
C483        C  0.20272303  0.42115319  0.45819499    -0.10300
C484        C  0.20869148  0.43579867  0.43847722    -0.11900
C485        C  0.26527701  0.44687112  0.36544577    -0.10300
C486        C  0.28124765  0.43610623  0.35355311    -0.11900
C487        C  0.13437477  0.43569298  0.35341208    -0.10300
C488        C  0.16121003  0.44653530  0.36522023    -0.11900
C489        C  0.26609047  0.23713475  0.40076530    -0.10300
C490        C  0.28000527  0.22287112  0.41096030    -0.11900
C491        C  0.20731787  0.29438768  0.43836056    -0.10300
C492        C  0.19884607  0.30054129  0.45810110    -0.11900
C493        C  0.16157930  0.23746566  0.36524147    -0.10300
C494        C  0.13486808  0.22154709  0.35329637    -0.11900
C495        C  0.28119572  0.36820420  0.35329651    -0.10300
C496        C  0.26527822  0.34139332  0.36510462    -0.11900
C497        C  0.42285656  0.22267261  0.41114506    -0.10300
C498        C  0.45107972  0.23659282  0.40099920    -0.11900
C499        C  0.08201375  0.30438197  0.45813553    -0.10300
C500        C  0.06728344  0.29578732  0.43843800    -0.11900
C501        C  0.05568728  0.34117838  0.36545388    -0.10300
C502        C  0.06640872  0.36787461  0.35354680    -0.11900
C503        C  0.06713564  0.22186388  0.35323343    -0.10300
C504        C  0.05628264  0.23774401  0.36513974    -0.11900
C505        C  0.37462415  0.12739893  0.23344212    -0.10300
C506        C  0.38894539  0.11352720  0.24361341    -0.11900
C507        C  0.37462945  0.27045259  0.23336651    -0.10300
C508        C  0.38863955  0.29870365  0.24347432    -0.11900
C509        C  0.20368430  0.11301851  0.24376665    -0.10300
C510        C  0.23187004  0.12732634  0.23357469    -0.11900
C511        C  0.43253362  0.07069648  0.06758633    -0.10300
C512        C  0.44638907  0.05634506  0.07773422    -0.11900
C513        C  0.36473107  0.13371001  0.12476884    -0.10300
C514        C  0.37348927  0.12778317  0.10506262    -0.11900
C515        C  0.44774173  0.20163581  0.01988601    -0.10300
C516        C  0.43177271  0.17488184  0.03174803    -0.11900
C517        C  0.44623308  0.41320634  0.07778342    -0.10300
C518        C  0.43202618  0.38496009  0.06767237    -0.11900
C519        C  0.37499807  0.26888104  0.10515788    -0.10300
C520        C  0.36873663  0.25416077  0.12485369    -0.11900
C521        C  0.32812163  0.27967745  0.03178158    -0.10300
C522        C  0.30137068  0.26881824  0.01988202    -0.11900
C523        C  0.43224025  0.28043462  0.03214663    -0.10300
C524        C  0.44814097  0.26968226  0.02015577    -0.11900
C525        C  0.08904523  0.05627564  0.07747654    -0.10300
C526        C  0.11721827  0.07018345  0.06725933    -0.11900
C527        C  0.23314384  0.12881896  0.10505455    -0.10300
C528        C  0.24773617  0.13732859  0.12480849    -0.11900
C529        C  0.22239019  0.17441194  0.03183335    -0.10300
C530        C  0.23327193  0.20112301  0.01991199    -0.11900
C531        C  0.32795892  0.07089155  0.03219838    -0.10300
C532        C  0.30119041  0.05478302  0.02035621    -0.11900
C533        C  0.23317826  0.05455323  0.02016231    -0.10300
C534        C  0.22229663  0.07055036  0.03190872    -0.11900
C535        C  0.28476997  0.40323807  0.73417110    -0.10300
C536        C  0.25656449  0.38925137  0.74434094    -0.11900
C537        C  0.11368783  0.24657379  0.74425631    -0.10300
C538        C  0.09936373  0.21837082  0.73409609    -0.11900
C539        C  0.09972550  0.40377510  0.73431958    -0.10300
C540        C  0.11362716  0.38944366  0.74443972    -0.11900
C541        C  0.04219044  0.10383724  0.90029692    -0.10300
C542        C  0.05606610  0.13204033  0.91045689    -0.11900
C543        C  0.11483832  0.24788938  0.87266311    -0.10300
C544        C  0.12351268  0.26253148  0.85294578    -0.11900
C545        C  0.16055244  0.23709009  0.94567876    -0.10300
C546        C  0.18730687  0.24781518  0.95754872    -0.11900
C547        C  0.04060457  0.24794539  0.95766376    -0.10300
C548        C  0.05662903  0.23712040  0.94588905    -0.11900
C549        C  0.39934354  0.46111852  0.90019163    -0.10300
C550        C  0.37114444  0.44686212  0.91037948    -0.11900
C551        C  0.24043545  0.38339771  0.85304616    -0.10300
C552        C  0.25506302  0.38956972  0.87278979    -0.11900
C553        C  0.26608867  0.34246836  0.94599850    -0.10300
C554        C  0.25523558  0.31565053  0.95779165    -0.11900
C555        C  0.26620339  0.44629525  0.94598305    -0.10300
C556        C  0.25535667  0.46214265  0.95794362    -0.11900
C557        C  0.05662577  0.44711630  0.91010978    -0.10300
C558        C  0.04237776  0.46110014  0.89999733    -0.11900
C559        C  0.11968046  0.37927494  0.85295715    -0.10300
C560        C  0.11356350  0.38790378  0.87264455    -0.11900
C561        C  0.05637170  0.34237948  0.94552881    -0.10300
C562        C  0.04038903  0.31569241  0.95744698    -0.11900
C563        C  0.16050703  0.44576470  0.94604970    -0.10300
C564        C  0.18722160  0.46164826  0.95798648    -0.11900
C565        C  0.07545098  0.92811588  0.91520969     0.89500
C566        C  0.05422005  0.89350229  0.92935855    -0.50800
C567        C  0.07185638  0.87553043  0.93251247     0.12400
C568        C  0.10900372  0.89380230  0.92117741     0.23300
C569        C  0.10985028  0.94876330  0.92974466    -0.51500
C570        C  0.12745396  0.93073780  0.93287233     0.12500
C571        C  0.08583955  0.91803249  0.89090455    -0.51000
C572        C  0.10321704  0.90011999  0.89393034     0.13100
H573        H  0.02773907  0.88404161  0.93617136     0.17600
H574        H  0.12329505  0.87913511  0.92361656     0.03300
H575        H  0.11946309  0.97514692  0.93679113     0.17900
H576        H  0.07966554  0.92424120  0.87273649     0.17700
C577        C  0.33327037  0.92785495  0.91547508     0.89500
C578        C  0.31967032  0.94882715  0.92974597    -0.50800
C579        C  0.28403346  0.93101733  0.93286680     0.12400
C580        C  0.26535126  0.89396473  0.92136885     0.23300
C581        C  0.31965006  0.89339109  0.92986406    -0.51500
C582        C  0.28399381  0.87560476  0.93295589     0.12500
C583        C  0.31284538  0.91755396  0.89115105    -0.51000
C584        C  0.27753371  0.89999206  0.89412798     0.13100
H585        H  0.33656920  0.97526654  0.93665945     0.17600
H586        H  0.23637222  0.87952838  0.92377194     0.03300
H587        H  0.33652930  0.88386290  0.93683420     0.17900
H588        H  0.32528004  0.92387938  0.87299717     0.17700
C589        C  0.07486039  0.66989807  0.91546441     0.89500
C590        C  0.10950386  0.68356815  0.92965761    -0.50800
C591        C  0.12732133  0.71918952  0.93271419     0.12400
C592        C  0.10886975  0.73779425  0.92124771     0.23300
C593        C  0.05403406  0.68354117  0.92987912    -0.51500
C594        C  0.07188864  0.71918921  0.93290482     0.12500
C595        C  0.08487223  0.69020321  0.89110313    -0.51000
C596        C  0.10263291  0.72550839  0.89402817     0.13100
H597        H  0.11911804  0.66672827  0.93654626     0.17600
H598        H  0.12341449  0.76676497  0.92360696     0.03300
H599        H  0.02764341  0.66668721  0.93690069     0.17900
H600        H  0.07875012  0.67769865  0.87296998     0.17700
O601        O  0.16085265  0.89027497  0.76461625    -0.78800
C602        C  0.13412820  0.78031318  0.82965748     1.00500
O603        O  0.11138889  0.77922765  0.81486104    -0.67900
O604        O  0.11220781  0.83668575  0.82457078    -0.71500
Al605      Al  0.11464117  0.81646171  0.79441190     1.49000
C606        C  0.12695432  0.86874496  0.82967141     0.95800
O607        O  0.20540869  0.89085076  0.82455411    -0.77800
O608        O  0.21039124  0.84208808  0.76470312    -0.71300
Al609      Al  0.18267439  0.88833603  0.79442062     1.90100
O610        O  0.22372215  0.85430563  0.81503024    -0.70400
O611        O  0.15433404  0.78107170  0.77443007    -0.70200
O612        O  0.16621734  0.79765197  0.82461444    -0.75900
O613        O  0.11272075  0.79277517  0.76458224    -0.74100
O614        O  0.16129762  0.84171528  0.79401838    -1.10200
O615        O  0.10754337  0.84868813  0.77445794    -0.69400
C616        C  0.12810260  0.87495891  0.76146688     1.01300
C617        C  0.22268371  0.87609072  0.82971912     0.97700
Al618      Al  0.18654920  0.82033159  0.79448347     1.55600
O619        O  0.14867789  0.89152277  0.81493608    -0.74100
C620        C  0.12809614  0.77541965  0.76139026     1.01900
C621        C  0.22769695  0.87479892  0.76145582     0.96700
O622        O  0.22194881  0.89537993  0.77440474    -0.79400
C623        C  0.24868805  0.98483835  0.97368388     0.05300
C624        C  0.21650820  0.98461087  0.97369375     0.05200
C625        C  0.21243695  0.50800345  0.98914923    -0.15300
C626        C  0.23974070  0.53160550  0.00462388     0.05300
C627        C  0.27188145  0.53175342  0.00469182     0.05200
C628        C  0.27597061  0.50837830  0.98922584    -0.15300
H629        H  0.30073075  0.50853840  0.98925164     0.07300
H630        H  0.18768951  0.50786819  0.98910401     0.07300
C631        C  0.15507721  0.58899346  0.06222197     0.89500
C632        C  0.16879123  0.62355603  0.04795293    -0.50800
C633        C  0.20444046  0.64130813  0.04490207     0.12400
C634        C  0.22301519  0.62287637  0.05645989     0.23300
C635        C  0.16868583  0.56807546  0.04788494    -0.51500
C636        C  0.20435445  0.58586846  0.04486502     0.12500
C637        C  0.17540829  0.59909672  0.08658541    -0.51000
C638        C  0.21072916  0.61677063  0.08367653     0.13100
H639        H  0.15196083  0.63315102  0.04099880     0.17600
H640        H  0.25200350  0.63735852  0.05411352     0.03300
H641        H  0.15179205  0.54167444  0.04090314     0.17900
H642        H  0.16290530  0.59303484  0.10471591     0.17700
C643        C  0.41319188  0.84711700  0.06257715     0.89500
C644        C  0.43442408  0.83371975  0.04841261    -0.50800
C645        C  0.41679148  0.79811167  0.04525080     0.12400
C646        C  0.37965188  0.77925131  0.05660600     0.23300
C647        C  0.37878070  0.83334251  0.04805182    -0.51500
C648        C  0.36118418  0.79771477  0.04492280     0.12500
C649        C  0.40282280  0.82667862  0.08688093    -0.51000
C650        C  0.38544187  0.79138993  0.08385703     0.13100
H651        H  0.46088801  0.85073284  0.04157516     0.17600
H652        H  0.36536162  0.75029468  0.05416421     0.03300
H653        H  0.36915165  0.85009814  0.04101698     0.17900
H654        H  0.40896866  0.83908411  0.10504901     0.17700
C655        C  0.41368736  0.58969105  0.06247748     0.89500
C656        C  0.37905327  0.56860582  0.04828798    -0.50800
C657        C  0.36119114  0.58635127  0.04514348     0.12400
C658        C  0.37959193  0.62346830  0.05651657     0.23300
C659        C  0.43447935  0.62407455  0.04798803    -0.51500
C660        C  0.41657606  0.64180609  0.04486430     0.12500
C661        C  0.40363583  0.60010908  0.08678358    -0.51000
C662        C  0.38582500  0.61759017  0.08376450     0.13100
H663        H  0.36946928  0.54211423  0.04147567     0.17600
H664        H  0.36500673  0.63784329  0.05408380     0.03300
H665        H  0.46087474  0.63359125  0.04097729     0.17900
H666        H  0.40973792  0.59382444  0.10494970     0.17700
O667        O  0.37550851  0.67459116  0.21322016    -0.78800
C668        C  0.26547456  0.64784779  0.14813052     1.00500
O669        O  0.26444996  0.62508693  0.16284948    -0.67900
O670        O  0.32199962  0.62603612  0.15312792    -0.71500
Al671      Al  0.30172035  0.62835611  0.18330436     1.49000
C672        C  0.35409295  0.64079739  0.14808420     0.95800
O673        O  0.37609679  0.71906741  0.15327840    -0.77800
O674        O  0.32738736  0.72409526  0.21314636    -0.71300
Al675      Al  0.37360390  0.69637742  0.18340676     1.90100
O676        O  0.33947916  0.73732403  0.16279679    -0.70400
O677        O  0.26633320  0.66800642  0.20345552    -0.70200
O678        O  0.28276455  0.67989311  0.15325821    -0.75900
O679        O  0.27797772  0.62631951  0.21312590    -0.74100
O680        O  0.32695030  0.67499062  0.18378235    -1.10200
O681        O  0.33399126  0.62129241  0.20326992    -0.69400
C682        C  0.36020098  0.64185919  0.21634066     1.01300
C683        C  0.36131723  0.73632897  0.14812734     0.97700
Al684      Al  0.30554002  0.70020980  0.18337224     1.55600
O685        O  0.37683492  0.66239733  0.16291292    -0.74100
C686        C  0.26066466  0.64172115  0.21641221     1.01900
C687        C  0.36013082  0.74146753  0.21633576     0.96700
O688        O  0.38068704  0.73567768  0.20339066    -0.79400
C689        C  0.01760399  0.75440541  0.97325949     0.05300
C690        C  0.01757541  0.78643836  0.97321501     0.05200
C691        C  0.49422446  0.79042854  0.98877667    -0.15300
C692        C  0.47083877  0.76313293  0.00433444     0.05300
C693        C  0.47071017  0.73102084  0.00425818     0.05200
C694        C  0.49412433  0.72707100  0.98874497    -0.15300
H695        H  0.49409313  0.70239159  0.98873872     0.07300
H696        H  0.49426750  0.81511603  0.98879148     0.07300
C697        C  0.21659986  0.75412281  0.97323475     0.05300
C698        C  0.24870095  0.78614328  0.97331641     0.05200
C699        C  0.27603748  0.78989616  0.98877349    -0.15300
C700        C  0.27203394  0.76245593  0.00419612     0.05300
C701        C  0.23988709  0.73047822  0.00418835     0.05200
C702        C  0.21257619  0.72668642  0.98867788    -0.15300
H703        H  0.18784499  0.70206543  0.98864337     0.07300
H704        H  0.30075935  0.81452617  0.98881996     0.07300
C705        C  0.48893406  0.75555031  0.39588456     0.89500
C706        C  0.50235785  0.79010869  0.38166335    -0.50800
C707        C  0.03798163  0.80805494  0.37849748     0.12400
C708        C  0.05683099  0.78980938  0.38989181     0.23300
C709        C  0.50264276  0.73482890  0.38141000    -0.51500
C710        C  0.03828937  0.75282884  0.37826707     0.12500
C711        C  0.00942988  0.76571948  0.42018141    -0.51000
C712        C  0.04473428  0.78359479  0.41714482     0.13100
H713        H  0.48535416  0.79956063  0.37482219     0.17600
H714        H  0.08580223  0.80445396  0.38744336     0.03300
H715        H  0.48583231  0.70841987  0.37441239     0.17900
H716        H  0.99705150  0.75957011  0.43835377     0.17700
C717        C  0.24719268  0.75607754  0.39566972     0.89500
C718        C  0.21257129  0.73503506  0.38144837    -0.50800
C719        C  0.19471356  0.75279554  0.37832951     0.12400
C720        C  0.21310233  0.78987469  0.38978383     0.23300
C721        C  0.26799668  0.79051404  0.38123442    -0.51500
C722        C  0.25009070  0.80825094  0.37815043     0.12500
C723        C  0.23711928  0.76641808  0.41999568    -0.51000
C724        C  0.21934248  0.78393584  0.41702123     0.13100
H725        H  0.20302497  0.70858694  0.37455888     0.17600
H726        H  0.19853333  0.80427138  0.38738470     0.03300
H727        H  0.29440403  0.80006365  0.37423559     0.17900
H728        H  0.24328337  0.76015375  0.43814820     0.17700
C729        C  0.24661200  0.51387481  0.39574256     0.89500
C730        C  0.26766010  0.50031580  0.38152243    -0.50800
C731        C  0.24990089  0.96469478  0.37842839     0.12400
C732        C  0.21282803  0.94597996  0.38989654     0.23300
C733        C  0.21212382  0.50015919  0.38132530    -0.51500
C734        C  0.19437686  0.96451009  0.37826594     0.12500
C735        C  0.23634177  0.99351733  0.42008339    -0.51000
C736        C  0.21886074  0.95821687  0.41712905     0.13100
H737        H  0.29411866  0.51722589  0.37463726     0.17600
H738        H  0.19844958  0.91701388  0.38751135     0.03300
H739        H  0.20254004  0.51696632  0.37431693     0.17900
H740        H  0.24270349  0.00599027  0.43822765     0.17700
O741        O  0.11216819  0.79331476  0.54645529    -0.78800
C742        C  0.19553974  0.90338361  0.48149580     1.00500
O743        O  0.17379195  0.90440534  0.49623627    -0.67900
O744        O  0.11713772  0.84694419  0.48654636    -0.71500
Al745      Al  0.13979348  0.86718610  0.51670663     1.49000
C746        C  0.09983119  0.81489427  0.48142426     0.95800
O747        O  0.15627691  0.79297257  0.48652899    -0.77800
O748        O  0.20983763  0.84158280  0.54652852    -0.71300
Al749      Al  0.13597938  0.79534972  0.51666158     1.90100
O750        O  0.21113112  0.82945719  0.49618987    -0.70400
O751        O  0.21488886  0.90263531  0.53677545    -0.70200
O752        O  0.21033122  0.88611536  0.48659832    -0.75900
O753        O  0.16154096  0.89093885  0.54653189    -0.74100
O754        O  0.16121786  0.84197793  0.51712168    -1.10200
O755        O  0.10047431  0.83492274  0.53667985    -0.69400
C756        C  0.09475991  0.80863499  0.54964625     1.01300
C757        C  0.18834817  0.80775416  0.48142870     0.97700
Al758      Al  0.20787604  0.86339305  0.51673063     1.55600
O759        O  0.09877828  0.79211931  0.49614664    -0.74100
C760        C  0.19427976  0.90831890  0.54975400     1.01900
C761        C  0.19444581  0.80885734  0.54971403     0.96700
O762        O  0.16819879  0.78829473  0.53667630    -0.79400
C763        C  0.16581449  0.59402677  0.24881982     0.89500
C764        C  0.15224723  0.61510866  0.26296938    -0.50800
C765        C  0.11661254  0.59736903  0.26605570     0.12400
C766        C  0.09789071  0.56025893  0.25465913     0.23300
C767        C  0.15213417  0.55963392  0.26330055    -0.51500
C768        C  0.11647352  0.54190580  0.26636345     0.12500
C769        C  0.14542958  0.58363665  0.22447852    -0.51000
C770        C  0.11011302  0.56615567  0.22742874     0.13100
H771        H  0.16916573  0.64158610  0.26981272     0.17600
H772        H  0.06890860  0.54588496  0.25704129     0.03300
H773        H  0.16897626  0.55010823  0.27035186     0.17900
H774        H  0.15789342  0.58992395  0.20633466     0.17700
C775        C  0.40767425  0.83654701  0.24856952     0.89500
C776        C  0.44225380  0.84995587  0.26281540    -0.50800
C777        C  0.46024101  0.88556411  0.26597604     0.12400
C778        C  0.44201886  0.90441409  0.25454444     0.23300
C779        C  0.38697441  0.85030989  0.26301514    -0.51500
C780        C  0.40501202  0.88593869  0.26614448     0.12500
C781        C  0.41787185  0.85699156  0.22426539    -0.51000
C782        C  0.43579977  0.89228227  0.22729144     0.13100
H783        H  0.45168063  0.83295316  0.26968660     0.17600
H784        H  0.45669668  0.93337054  0.25698753     0.03300
H785        H  0.36054340  0.83354464  0.26999867     0.17900
H786        H  0.41170414  0.84458835  0.20609712     0.17700
C787        C  0.40800530  0.59474740  0.24869388     0.89500
C788        C  0.38705438  0.56020641  0.26297597    -0.50800
C789        C  0.40488877  0.54242213  0.26609154     0.12400
C790        C  0.44194226  0.56080188  0.25459282     0.23300
C791        C  0.44251904  0.61565140  0.26306991    -0.51500
C792        C  0.46032690  0.59781966  0.26616292     0.12500
C793        C  0.41827290  0.58459258  0.22437048    -0.51000
C794        C  0.43585778  0.56688420  0.22735785     0.13100
H795        H  0.36059900  0.55063979  0.26988166     0.17600
H796        H  0.45639571  0.54629013  0.25699622     0.03300
H797        H  0.45206170  0.64206473  0.27003039     0.17900
H798        H  0.41189838  0.59063647  0.20621465     0.17700
O799        O  0.49356652  0.55730082  0.09803389    -0.78800
C800        C  0.46708406  0.94735526  0.16302347     1.00500
O801        O  0.44423266  0.94629483  0.14834244    -0.67900
O802        O  0.44489614  0.50365834  0.15790709    -0.71500
Al803      Al  0.44734890  0.98338889  0.12778961     1.49000
C804        C  0.45963949  0.53570237  0.16303260     0.95800
O805        O  0.03806146  0.55767541  0.15794998    -0.77800
O806        O  0.04291350  0.50910892  0.09785400    -0.71300
Al807      Al  0.01536944  0.55529483  0.12781016     1.90100
O808        O  0.05657515  0.52138610  0.14814632    -0.70400
O809        O  0.48703258  0.94798507  0.10776223    -0.70200
O810        O  0.49914274  0.96466597  0.15786894    -0.75900
O811        O  0.44530301  0.95953257  0.09800239    -0.74100
O812        O  0.49399121  0.50866647  0.12734475    -1.10200
O813        O  0.44025044  0.51554519  0.10774216    -0.69400
C814        C  0.46082781  0.54188304  0.09480331     1.01300
C815        C  0.05541386  0.54295228  0.16298711     0.97700
Al816      Al  0.01929385  0.98732971  0.12770298     1.55600
O817        O  0.48139108  0.55848950  0.14832492    -0.74100
C818        C  0.46068026  0.94217956  0.09481479     1.01900
C819        C  0.06026190  0.54183555  0.09467328     0.96700
O820        O  0.05465421  0.56239557  0.10776665    -0.79400
C821        C  0.07351345  0.69893784  0.33752946     0.05300
C822        C  0.10550578  0.69878823  0.33754627     0.05200
C823        C  0.10930542  0.67528849  0.32202505    -0.15300
C824        C  0.08186442  0.65188857  0.30653932     0.05300
C825        C  0.04984390  0.65197866  0.30658164     0.05200
C826        C  0.04607898  0.67552924  0.32205626    -0.15300
H827        H  0.02144189  0.67561535  0.32207798     0.07300
H828        H  0.13393400  0.67518384  0.32201566     0.07300
C829        C  0.30412663  0.89765196  0.33771405     0.05300
C830        C  0.30412400  0.92969942  0.33780717     0.05200
C831        C  0.32752976  0.95709113  0.32232196    -0.15300
C832        C  0.35097766  0.95324031  0.30677547     0.05300
C833        C  0.35107624  0.92124270  0.30676124     0.05200
C834        C  0.32762974  0.89383691  0.32221133    -0.15300
H835        H  0.32766898  0.86919199  0.32216507     0.07300
H836        H  0.32748448  0.98173446  0.32236177     0.07300
C837        C  0.07283996  0.89717695  0.33783319     0.05300
C838        C  0.10490821  0.92923626  0.33782213     0.05200
C839        C  0.10874797  0.95660287  0.32238654    -0.15300
C840        C  0.08135584  0.95266672  0.30690475     0.05300
C841        C  0.04935747  0.92054015  0.30681435     0.05200
C842        C  0.04547033  0.89320563  0.32230816    -0.15300
H843        H  0.02081726  0.86850574  0.32227748     0.07300
H844        H  0.13340263  0.98129892  0.32241184     0.07300
C845        C  0.32262755  0.92226078  0.72909128     0.89500
C846        C  0.33603358  0.95686820  0.71493644    -0.50800
C847        C  0.37166495  0.97487404  0.71181032     0.12400
C848        C  0.39053864  0.95663730  0.72318498     0.23300
C849        C  0.33641930  0.90164144  0.71458502    -0.51500
C850        C  0.37207217  0.91969407  0.71148985     0.12500
C851        C  0.34306269  0.93236510  0.75341325    -0.51000
C852        C  0.37837367  0.95031438  0.75042607     0.13100
H853        H  0.31901152  0.96630243  0.70810138     0.17600
H854        H  0.41951530  0.97133128  0.72077282     0.03300
H855        H  0.31965708  0.87525041  0.70754031     0.17900
H856        H  0.33063614  0.92615042  0.77156936     0.17700
C857        C  0.08036408  0.68053629  0.72906561     0.89500
C858        C  0.10137489  0.66691183  0.71488316    -0.50800
C859        C  0.08357955  0.63129067  0.71182198     0.12400
C860        C  0.04649244  0.61264218  0.72327098     0.23300
C861        C  0.04589196  0.66685699  0.71463600    -0.51500
C862        C  0.02811139  0.63121183  0.71159952     0.08300
C863        C  0.07004978  0.66022622  0.75342193    -0.51000
C864        C  0.05250410  0.62492427  0.75049141     0.13100
H865        H  0.12784397  0.68378205  0.70800023     0.17600
H866        H  0.03207025  0.58367216  0.72090764     0.03300
H867        H  0.03634851  0.68368656  0.70760618     0.17900
H868        H  0.07639227  0.67272573  0.77155774     0.17700
C869        C  0.08087522  0.92278258  0.72922182     0.89500
C870        C  0.04632216  0.90179288  0.71491362    -0.50800
C871        C  0.02849792  0.91957924  0.71175587     0.12400
C872        C  0.04684587  0.95662517  0.72324802     0.23300
C873        C  0.10176608  0.95725341  0.71483985    -0.51500
C874        C  0.08389126  0.97501144  0.71170827     0.12500
C875        C  0.07068351  0.93306901  0.75352511    -0.51000
C876        C  0.05292490  0.95060185  0.75049856     0.13100
H877        H  0.03678591  0.87535349  0.70800928     0.17600
H878        H  0.03229876  0.97103752  0.72080926     0.03300
H879        H  0.12819913  0.96679938  0.70789656     0.17900
H880        H  0.07673067  0.92673642  0.77169321     0.17700
O881        O  0.04329999  0.50830727  0.87979902    -0.78800
C882        C  0.43322748  0.98172669  0.81481320     1.00500
O883        O  0.43210869  0.95894579  0.82956323    -0.67900
O884        O  0.48954708  0.95966866  0.81989112    -0.71500
Al885      Al  0.46931842  0.96212009  0.85004644     1.49000
C886        C  0.02161319  0.97441028  0.81476893     0.95800
O887        O  0.04368528  0.55284915  0.81994011    -0.77800
O888        O  0.49500445  0.55767722  0.87992535    -0.71300
Al889      Al  0.04127006  0.53012286  0.85004320     1.90100
O890        O  0.50724159  0.57122587  0.82964414    -0.70400
O891        O  0.43390156  0.50175920  0.87006629    -0.70200
O892        O  0.45056061  0.51377945  0.81992480    -0.75900
O893        O  0.44558148  0.96015769  0.87987526    -0.74100
O894        O  0.49461608  0.50874479  0.85047994    -1.10200
O895        O  0.00155287  0.95502971  0.87001329    -0.69400
C896        C  0.02789365  0.97557701  0.88297956     1.01300
C897        C  0.02893798  0.57016479  0.81487591     0.97700
Al898      Al  0.47323000  0.53399213  0.85009440     1.55600
O899        O  0.04444463  0.49618020  0.82947039    -0.74100
C900        C  0.42820878  0.97551500  0.88307964     1.01900
C901        C  0.02774460  0.57501284  0.88314578     0.96700
O902        O  0.04833738  0.56935184  0.87012685    -0.79400
C903        C  0.24153898  0.50327109  0.58206360     0.89500
C904        C  0.27619825  0.51683714  0.59622786    -0.50800
C905        C  0.29409274  0.55245453  0.59932781     0.12400
C906        C  0.27570982  0.57115787  0.58791439     0.23300
C907        C  0.22081093  0.51697741  0.59654145    -0.51500
C908        C  0.23876659  0.55262146  0.59960470     0.12500
C909        C  0.25155047  0.52362274  0.55772517    -0.51000
C910        C  0.26937027  0.55891963  0.56068644     0.13100
H911        H  0.28574459  0.99993451  0.60309108     0.17600
H912        H  0.29031321  0.60012392  0.59030323     0.03300
H913        H  0.19443418  0.00016757  0.60360264     0.17900
H914        H  0.24531315  0.51115461  0.53957817     0.17700
C915        C  0.49973875  0.76088799  0.58197681     0.89500
C916        C  0.48627335  0.78202283  0.59617971    -0.50800
C917        C  0.45065227  0.76431908  0.59935577     0.12400
C918        C  0.43184320  0.72719175  0.58799448     0.23300
C919        C  0.48609289  0.72651107  0.59647789    -0.51500
C920        C  0.45044801  0.70882345  0.59963471     0.12500
C921        C  0.47922196  0.75047327  0.55768724    -0.51000
C922        C  0.44391708  0.73302598  0.56073317     0.13100
H923        H  0.00324613  0.80850932  0.60298665     0.17600
H924        H  0.40287373  0.71284766  0.59045271     0.03300
H925        H  0.00294634  0.71696746  0.60347525     0.17900
H926        H  0.49158913  0.75670334  0.53951078     0.17700
C927        C  0.24193421  0.76151044  0.58215809     0.89500
C928        C  0.22093715  0.72697079  0.59643980    -0.50800
C929        C  0.23871708  0.70912543  0.59954171     0.12400
C930        C  0.27576436  0.72744998  0.58802447     0.23300
C931        C  0.27645929  0.78235398  0.59652446    -0.51500
C932        C  0.29421611  0.76447117  0.59960053     0.12500
C933        C  0.25214996  0.75132384  0.55782568    -0.51000
C934        C  0.26967180  0.73354894  0.56078964     0.13100
H935        H  0.19449578  0.71745272  0.60335781     0.17600
H936        H  0.29017489  0.71289364  0.59041523     0.03300
H937        H  0.28605116  0.80877350  0.60348892     0.17900
H938        H  0.24577167  0.75738438  0.53967709     0.17700
O939        O  0.37651699  0.67553161  0.43137101    -0.78800
C940        C  0.29313764  0.70223091  0.49637172     1.00500
O941        O  0.31487529  0.72500792  0.48164525    -0.67900
O942        O  0.37153662  0.72418974  0.49133328    -0.71500
Al943      Al  0.34888606  0.72178628  0.46116555     1.49000
C944        C  0.38883236  0.70942792  0.49644005     0.95800
O945        O  0.33239171  0.63108677  0.49126049    -0.77800
O946        O  0.27885141  0.62616752  0.43127373    -0.71300
Al947      Al  0.35269928  0.65376196  0.46114830     1.90100
O948        O  0.27754070  0.61273499  0.48159413    -0.70400
O949        O  0.27379506  0.68216173  0.44106984    -0.70200
O950        O  0.27834445  0.67018289  0.49123393    -0.75900
O951        O  0.32714579  0.72379877  0.43133916    -0.74100
O952        O  0.32746278  0.67516015  0.46071175    -1.10200
O953        O  0.38821128  0.72883068  0.44119030    -0.69400
C954        C  0.39392338  0.70825350  0.42820281     1.01300
C955        C  0.30031703  0.61378639  0.49634239     0.97700
Al956      Al  0.28080492  0.64993058  0.46108787     1.55600
O957        O  0.38989359  0.68771811  0.48168805    -0.74100
C958        C  0.29440851  0.70843380  0.42809619     1.01900
C959        C  0.29422187  0.60880622  0.42808530     0.96700
O960        O  0.32048004  0.61449570  0.44110930    -0.79400
C961        C  0.43938883  0.86567624  0.67088828     0.05300
C962        C  0.40738319  0.86579808  0.67084066     0.05200
C963        C  0.37996401  0.84233168  0.65537949    -0.15300
C964        C  0.38377403  0.81877818  0.63993365     0.05300
C965        C  0.41583968  0.81877515  0.63988774     0.05200
C966        C  0.44324872  0.84220697  0.65537712    -0.15300
H967        H  0.46789954  0.84214807  0.65538148     0.07300
H968        H  0.35530452  0.84237222  0.65538926     0.07300
C969        C  0.13789530  0.59637519  0.67126698     0.05300
C970        C  0.13795798  0.56436168  0.67121038     0.05200
C971        C  0.16147552  0.56056216  0.65571767    -0.15300
C972        C  0.18488549  0.58795770  0.64024569     0.05300
C973        C  0.18475911  0.61994384  0.64024184     0.05200
C974        C  0.16128458  0.62377144  0.65577608    -0.15300
H975        H  0.16120046  0.64839541  0.65579891     0.07300
H976        H  0.16154581  0.53593254  0.65568964     0.07300
C977        C  0.40656213  0.56406491  0.67120065     0.05300
C978        C  0.43867478  0.59607577  0.67117320     0.05200
C979        C  0.44258799  0.62346312  0.65572984    -0.15300
C980        C  0.41522262  0.61959365  0.64024939     0.05300
C981        C  0.38317557  0.58751432  0.64017396     0.05200
C982        C  0.37921465  0.56016124  0.65568103    -0.15300
H983        H  0.35452670  0.53549545  0.65565670     0.07300
H984        H  0.46728115  0.64812091  0.65574572     0.07300
C985        C  0.27992303  0.72134797  0.53944314    -0.10300
C986        C  0.28594155  0.71275266  0.51970167    -0.11900
C987        C  0.32742362  0.77972337  0.61260323    -0.10300
C988        C  0.35428165  0.79574608  0.62438079    -0.11900
C989        C  0.22341117  0.67599888  0.61259897    -0.10300
C990        C  0.20752775  0.64928483  0.62451273    -0.11900
C991        C  0.40661471  0.71665775  0.51974731    -0.10300
C992        C  0.42134382  0.72271933  0.53944623    -0.11900
C993        C  0.43292171  0.77979110  0.61233542    -0.10300
C994        C  0.42222527  0.79584131  0.62419952    -0.11900
C995        C  0.42169006  0.64900240  0.62463761    -0.10300
C996        C  0.43251629  0.67575756  0.61277286    -0.11900
C997        C  0.28132976  0.58135029  0.53934645    -0.10300
C998        C  0.28978527  0.59600104  0.51962726    -0.11900
C999        C  0.32723039  0.57025646  0.61240503    -0.10300
C1000       C  0.35390532  0.58102691  0.62438108    -0.11900
C1001       C  0.20782167  0.58154857  0.62457175    -0.10300
C1002       C  0.22368322  0.57063791  0.61270125    -0.11900
C1003       C  0.04072783  0.96095652  0.77178987    -0.10300
C1004       C  0.03211973  0.96709669  0.79148028    -0.11900
C1005       C  0.49539222  0.90429451  0.69863692    -0.10300
C1006       C  0.46870637  0.88842806  0.68666364    -0.11900
C1007       C  0.09912822  0.50813143  0.69864056    -0.10300
C1008       C  0.11505103  0.53492527  0.68681654    -0.11900
C1009       C  0.03614178  0.58792413  0.79158131    -0.10300
C1010       C  0.04219634  0.60253619  0.77185185    -0.11900
C1011       C  0.49493419  0.61325633  0.69856414    -0.10300
C1012       C  0.46810893  0.60246040  0.68675667    -0.11900
C1013       C  0.09893302  0.61344138  0.69885618    -0.10300
C1014       C  0.11495822  0.60272770  0.68697969    -0.11900
C1015       C  0.40086217  0.96256027  0.77175505    -0.10300
C1016       C  0.41550593  0.97119490  0.79148490    -0.11900
C1017       C  0.38935728  0.50804337  0.69880802    -0.10300
C1018       C  0.40007161  0.53474923  0.68691170    -0.11900
C1019       C  0.40098851  0.88877662  0.68647876    -0.10300
C1020       C  0.39012649  0.90467434  0.69835781    -0.11900
C1021       C  0.45235238  0.54620712  0.18632598    -0.10300
C1022       C  0.44622465  0.55476167  0.20603887    -0.11900
C1023       C  0.49351658  0.61308824  0.27918739    -0.10300
C1024       C  0.02035655  0.62904490  0.29099209    -0.11900
C1025       C  0.38962179  0.50930020  0.27914119    -0.10300
C1026       C  0.37374987  0.98257320  0.29104910    -0.11900
C1027       C  0.44802559  0.91480475  0.20599725    -0.10300
C1028       C  0.45662240  0.92954238  0.18630991    -0.11900
C1029       C  0.49337057  0.90325272  0.27907330    -0.10300
C1030       C  0.02005418  0.91400342  0.29103797    -0.11900
C1031       C  0.37404254  0.91485115  0.29110184    -0.10300
C1032       C  0.38994112  0.90397370  0.27923745    -0.11900
C1033       C  0.07309439  0.55001877  0.18632444    -0.10300
C1034       C  0.08767727  0.55593901  0.20607312    -0.11900
C1035       C  0.09852172  0.50881714  0.27946841    -0.10300
C1036       C  0.08774601  0.98206214  0.29130780    -0.11900
C1037       C  0.09881935  0.61280147  0.27899915    -0.10300
C1038       C  0.08816588  0.62889439  0.29085547    -0.11900
C1039       C  0.20870484  0.93720516  0.56685817    -0.10300
C1040       C  0.22262261  0.96542090  0.57700926    -0.11900
C1041       C  0.20878896  0.79438272  0.56686625    -0.10300
C1042       C  0.22298272  0.78040599  0.57707292    -0.11900
C1043       C  0.03758990  0.77982118  0.57684622    -0.10300
C1044       C  0.06581624  0.79413801  0.56670097    -0.11900
C1045       C  0.26556490  0.55172922  0.40079793    -0.10300
C1046       C  0.27981921  0.57993760  0.41096274    -0.11900
C1047       C  0.20274095  0.92114405  0.45819168    -0.10300
C1048       C  0.20870584  0.93579126  0.43847449    -0.11900
C1049       C  0.26527413  0.94687472  0.36543830    -0.10300
C1050       C  0.28124523  0.93610655  0.35354907    -0.11900
C1051       C  0.13436702  0.93568995  0.35341092    -0.10300
C1052       C  0.16119918  0.94652656  0.36522207    -0.11900
C1053       C  0.26607425  0.73711340  0.40076177    -0.10300
C1054       C  0.27998591  0.72284824  0.41095932    -0.11900
C1055       C  0.20733653  0.79439335  0.43836417    -0.10300
C1056       C  0.19886903  0.80054475  0.45810703    -0.11900
C1057       C  0.16157281  0.73746916  0.36524304    -0.10300
C1058       C  0.13486681  0.72155755  0.35329146    -0.11900
C1059       C  0.28119267  0.86819944  0.35329959    -0.10300
C1060       C  0.26527680  0.84138490  0.36510424    -0.11900
C1061       C  0.42285979  0.72268699  0.41114650    -0.10300
C1062       C  0.45108390  0.73660080  0.40100159    -0.11900
C1063       C  0.08202539  0.80436644  0.45813133    -0.10300
C1064       C  0.06729391  0.79577744  0.43843362    -0.11900
C1065       C  0.05568142  0.84118884  0.36545661    -0.10300
C1066       C  0.06639651  0.86788314  0.35354831    -0.11900
C1067       C  0.06713972  0.72188396  0.35321418    -0.10300
C1068       C  0.05628508  0.73776085  0.36512275    -0.11900
C1069       C  0.37463609  0.62741363  0.23343488    -0.10300
C1070       C  0.38895892  0.61354311  0.24360515    -0.11900
C1071       C  0.37463262  0.77045035  0.23336302    -0.10300
C1072       C  0.38864802  0.79870127  0.24347058    -0.11900
C1073       C  0.20367492  0.61299963  0.24376730    -0.10300
C1074       C  0.23186082  0.62730948  0.23357535    -0.11900
C1075       C  0.43252782  0.57069519  0.06758235    -0.10300
C1076       C  0.44637796  0.55633943  0.07773239    -0.11900
C1077       C  0.36472986  0.63370976  0.12476761    -0.10300
C1078       C  0.37349241  0.62778623  0.10506250    -0.11900
C1079       C  0.44773887  0.70164590  0.01989147    -0.10300
C1080       C  0.43177057  0.67488884  0.03174997    -0.11900
C1081       C  0.44620822  0.91320488  0.07778472    -0.10300
C1082       C  0.43200111  0.88495892  0.06767345    -0.11900
C1083       C  0.37496504  0.76887859  0.10515666    -0.10300
C1084       C  0.36870491  0.75415694  0.12485162    -0.11900
C1085       C  0.32812335  0.77967272  0.03176311    -0.10300
C1086       C  0.30137658  0.76881141  0.01985923    -0.11900
C1087       C  0.43223701  0.78044155  0.03215420    -0.10300
C1088       C  0.44813735  0.76969172  0.02016043    -0.11900
C1089       C  0.08903404  0.55630039  0.07747669    -0.10300
C1090       C  0.11720531  0.57020829  0.06725735    -0.11900
C1091       C  0.23312583  0.62881793  0.10505906    -0.10300
C1092       C  0.24771956  0.63732572  0.12481255    -0.11900
C1093       C  0.22239345  0.67442066  0.03183558    -0.10300
C1094       C  0.23327678  0.70112575  0.01990799    -0.11900
C1095       C  0.32794894  0.57089967  0.03220830    -0.10300
C1096       C  0.30117691  0.55479167  0.02036978    -0.11900
C1097       C  0.23316059  0.55455968  0.02016073    -0.10300
C1098       C  0.22227520  0.57055412  0.03190716    -0.11900
C1099       C  0.28476969  0.90322809  0.73417207    -0.10300
C1100       C  0.25656334  0.88924157  0.74434110    -0.11900
C1101       C  0.11369497  0.74658539  0.74425248    -0.10300
C1102       C  0.09938046  0.71838534  0.73408868    -0.11900
C1103       C  0.09971607  0.90377910  0.73432784    -0.10300
C1104       C  0.11362049  0.88944750  0.74444342    -0.11900
C1105       C  0.04218102  0.60384247  0.90028856    -0.10300
C1106       C  0.05604708  0.63204541  0.91044877    -0.11900
C1107       C  0.11482910  0.74790295  0.87266885    -0.10300
C1108       C  0.12350572  0.76254411  0.85295141    -0.11900
C1109       C  0.16054112  0.73707692  0.94567504    -0.10300
C1110       C  0.18729695  0.74779837  0.95754247    -0.11900
C1111       C  0.04060819  0.74795511  0.95767706    -0.10300
C1112       C  0.05662941  0.73712797  0.94590098    -0.11900
C1113       C  0.39933508  0.96111668  0.90019841    -0.10300
C1114       C  0.37113457  0.94685578  0.91038353    -0.11900
C1115       C  0.24043130  0.88339960  0.85304248    -0.10300
C1116       C  0.25505892  0.88956649  0.87278532    -0.11900
C1117       C  0.26607639  0.84245240  0.94598672    -0.10300
C1118       C  0.25522524  0.81563137  0.95777477    -0.11900
C1119       C  0.26618568  0.94627991  0.94597336    -0.10300
C1120       C  0.25534143  0.96212969  0.95793282    -0.11900
C1121       C  0.05661148  0.94711293  0.91011939    -0.10300
C1122       C  0.04235963  0.96109395  0.90000880    -0.11900
C1123       C  0.11967886  0.87929023  0.85295325    -0.10300
C1124       C  0.11356034  0.88791874  0.87264057    -0.11900
C1125       C  0.05636529  0.84237763  0.94552666    -0.10300
C1126       C  0.04038422  0.81569529  0.95744934    -0.11900
C1127       C  0.16049213  0.94575595  0.94605702    -0.10300
C1128       C  0.18720763  0.96163610  0.95799332    -0.11900
C1129       C  0.57546232  0.42811725  0.91520477     0.89500
C1130       C  0.55423171  0.39350825  0.92935963    -0.50800
C1131       C  0.57186646  0.37553506  0.93251680     0.12400
C1132       C  0.60901266  0.39380231  0.92117968     0.23300
C1133       C  0.60986386  0.44876776  0.92973613    -0.51500
C1134       C  0.62746651  0.43074238  0.93286768     0.12500
C1135       C  0.58584615  0.41802396  0.89090193    -0.51000
C1136       C  0.60322235  0.40011097  0.89393162     0.13100
H1137       H  0.52775053  0.38404964  0.93617169     0.17600
H1138       H  0.62330321  0.37913487  0.92362143     0.03300
H1139       H  0.61948002  0.47515564  0.93677759     0.17900
H1140       H  0.57967064  0.42422717  0.87273242     0.17700
C1141       C  0.83328055  0.42786454  0.91547521     0.89500
C1142       C  0.81968446  0.44883927  0.92974779    -0.50800
C1143       C  0.78404797  0.43103150  0.93287213     0.12400
C1144       C  0.76536206  0.39397767  0.92137492     0.23300
C1145       C  0.81966070  0.39340122  0.92986543    -0.51500
C1146       C  0.78400485  0.37561679  0.93296107     0.12500
C1147       C  0.81285137  0.41756276  0.89115300    -0.51000
C1148       C  0.77754014  0.40000195  0.89413236     0.13100
H1149       H  0.83658611  0.47527880  0.93666072     0.17600
H1150       H  0.73638351  0.37954272  0.92378049     0.03300
H1151       H  0.83654012  0.38387324  0.93683484     0.17900
H1152       H  0.82528324  0.42388504  0.87299823     0.17700
C1153       C  0.57487865  0.16989395  0.91546819     0.89500
C1154       C  0.60952109  0.18357222  0.92966453    -0.50800
C1155       C  0.62733362  0.21919473  0.93271655     0.12400
C1156       C  0.60887793  0.23779145  0.92124311     0.23300
C1157       C  0.55404656  0.18353578  0.92987637    -0.51500
C1158       C  0.57189507  0.21918404  0.93289780     0.12500
C1159       C  0.58489170  0.19019314  0.89110440    -0.51000
C1160       C  0.60264653  0.22549896  0.89402492     0.13100
H1161       H  0.61913828  0.16673731  0.93655823     0.17600
H1162       H  0.62341801  0.26676266  0.92359886     0.03300
H1163       H  0.52765525  0.16667967  0.93689732     0.17900
H1164       H  0.57877307  0.17768397  0.87297249     0.17700
O1165       O  0.66085682  0.39027580  0.76462011    -0.78800
C1166       C  0.63413451  0.28030530  0.82965334     1.00500
O1167       O  0.61139466  0.27922186  0.81485825    -0.67900
O1168       O  0.61220959  0.33667613  0.82457045    -0.71500
Al1169     Al  0.61464530  0.31645701  0.79441057     1.49000
C1170       C  0.62695517  0.36873417  0.82967375     0.95800
O1171       O  0.70540904  0.39084526  0.82455856    -0.77800
O1172       O  0.71039627  0.34209367  0.76470183    -0.71300
Al1173     Al  0.68267634  0.38833360  0.79442459     1.90100
O1174       O  0.72372753  0.35430523  0.81503124    -0.70400
O1175       O  0.65434044  0.28107113  0.77442553    -0.70200
O1176       O  0.66622369  0.29764646  0.82461067    -0.75900
O1177       O  0.61272553  0.29277304  0.76458017    -0.74100
O1178       O  0.66130159  0.34171269  0.79401854    -1.10200
O1179       O  0.60754719  0.34868479  0.77445699    -0.69400
C1180       C  0.62810734  0.37495710  0.76146719     1.01300
C1181       C  0.72268681  0.37608760  0.82972219     0.97700
Al1182     Al  0.68655527  0.32033144  0.79448122     1.55600
O1183       O  0.64867725  0.39151485  0.81493953    -0.74100
C1184       C  0.62809858  0.27541540  0.76138862     1.01900
C1185       C  0.72770038  0.37480511  0.76145706     0.96700
O1186       O  0.72195275  0.39538336  0.77440955    -0.79400
C1187       C  0.74869418  0.48484789  0.97369277     0.05300
C1188       C  0.71651582  0.48462373  0.97369132     0.05200
C1189       C  0.71243654  0.00799051  0.98915607    -0.15300
C1190       C  0.73974919  0.03159556  0.00462333     0.05300
C1191       C  0.77189104  0.03174627  0.00468057     0.05200
C1192       C  0.77597321  0.00837198  0.98920965    -0.15300
H1193       H  0.80073541  0.00853356  0.98922701     0.07300
H1194       H  0.68768826  0.00785397  0.98911940     0.07300
C1195       C  0.65509006  0.08897563  0.06222216     0.89500
C1196       C  0.66879505  0.12353537  0.04795055    -0.50800
C1197       C  0.70444401  0.14129541  0.04489742     0.12400
C1198       C  0.72302753  0.12287222  0.05645569     0.23300
C1199       C  0.66870431  0.06806205  0.04788629    -0.51500
C1200       C  0.70437243  0.08586208  0.04486426     0.12500
C1201       C  0.67542434  0.09908645  0.08658436    -0.51000
C1202       C  0.71074500  0.11676735  0.08367316     0.13100
H1203       H  0.65195854  0.13312409  0.04099764     0.17600
H1204       H  0.75201558  0.13735956  0.05410762     0.03300
H1205       H  0.65181491  0.04165857  0.04090749     0.17900
H1206       H  0.66292372  0.09302339  0.10471547     0.17700
C1207       C  0.91321214  0.34711790  0.06257612     0.89500
C1208       C  0.93443376  0.33371733  0.04840179    -0.50800
C1209       C  0.91679757  0.29810904  0.04524148     0.12400
C1210       C  0.87966345  0.27925182  0.05660636     0.23300
C1211       C  0.87879273  0.33334498  0.04806160    -0.51500
C1212       C  0.86119096  0.29771742  0.04493285     0.12500
C1213       C  0.90285600  0.32668042  0.08688053    -0.51000
C1214       C  0.88547015  0.29139141  0.08385740     0.13100
H1215       H  0.96089617  0.35072839  0.04155976     0.17600
H1216       H  0.86536990  0.25029511  0.05416540     0.03300
H1217       H  0.86916129  0.35010311  0.04103306     0.17900
H1218       H  0.90901251  0.33908648  0.10504811     0.17700
C1219       C  0.91368988  0.08968816  0.06248111     0.89500
C1220       C  0.87905935  0.06860103  0.04828842    -0.50800
C1221       C  0.86119558  0.08634413  0.04514083     0.12400
C1222       C  0.87959128  0.12346104  0.05651525     0.23300
C1223       C  0.93448219  0.12407208  0.04799308    -0.51500
C1224       C  0.91657801  0.14180161  0.04486616     0.12500
C1225       C  0.90363211  0.10010304  0.08678608    -0.51000
C1226       C  0.88582001  0.11758275  0.08376483     0.13100
H1227       H  0.86947979  0.04211086  0.04147510     0.17600
H1228       H  0.86500477  0.13783419  0.05407984     0.03300
H1229       H  0.96087936  0.13359013  0.04098394     0.17900
H1230       H  0.90973300  0.09381942  0.10495278     0.17700
O1231       O  0.87550328  0.17458204  0.21322967    -0.78800
C1232       C  0.76548718  0.14785288  0.14812782     1.00500
O1233       O  0.76445254  0.12509332  0.16285277    -0.67900
O1234       O  0.82200119  0.12603833  0.15312938    -0.71500
Al1235     Al  0.80172323  0.12835907  0.18330629     1.49000
C1236       C  0.85409510  0.14079670  0.14808707     0.95800
O1237       O  0.87611728  0.21907049  0.15328689    -0.77800
O1238       O  0.82739088  0.22410119  0.21314288    -0.71300
Al1239     Al  0.87361045  0.19637432  0.18341508     1.90100
O1240       O  0.83949733  0.23732817  0.16279431    -0.70400
O1241       O  0.76633964  0.16801357  0.20344891    -0.70200
O1242       O  0.78278377  0.17989900  0.15325146    -0.75900
O1243       O  0.77798530  0.12632961  0.21312848    -0.74100
O1244       O  0.82695786  0.17499332  0.18378426    -1.10200
O1245       O  0.83399000  0.12128671  0.20327049    -0.69400
C1246       C  0.86019497  0.14184939  0.21634640     1.01300
C1247       C  0.86134080  0.23633313  0.14813032     0.97700
Al1248     Al  0.80555136  0.20021556  0.18336775     1.55600
O1249       O  0.87683761  0.16239136  0.16291892    -0.74100
C1250       C  0.76067259  0.14173265  0.21641076     1.01900
C1251       C  0.86013295  0.24146904  0.21633925     0.96700
O1252       O  0.88069207  0.23567438  0.20340101    -0.79400
C1253       C  0.51760131  0.25439497  0.97324811     0.05300
C1254       C  0.51757769  0.28643076  0.97320906     0.05200
C1255       C  0.99422961  0.29042073  0.98877389    -0.15300
C1256       C  0.97084294  0.26312357  0.00433018     0.05300
C1257       C  0.97071119  0.23100984  0.00425069     0.05200
C1258       C  0.99412109  0.22705927  0.98873305    -0.15300
H1259       H  0.99408726  0.20237784  0.98872371     0.07300
H1260       H  0.99427539  0.31510952  0.98879219     0.07300
C1261       C  0.71660510  0.25413839  0.97324617     0.05300
C1262       C  0.74870411  0.28616133  0.97333608     0.05200
C1263       C  0.77603428  0.28991267  0.98880021    -0.15300
C1264       C  0.77202845  0.26246655  0.00421848     0.05300
C1265       C  0.73988428  0.23048482  0.00420044     0.05200
C1266       C  0.71257860  0.22669705  0.98868558    -0.15300
H1267       H  0.68784959  0.20207407  0.98864339     0.07300
H1268       H  0.80075367  0.31454328  0.98885304     0.07300
C1269       C  0.98893004  0.25554469  0.39588458     0.89500
C1270       C  0.00235646  0.29009950  0.38165731    -0.50800
C1271       C  0.53798138  0.30804426  0.37849445     0.12400
C1272       C  0.55682765  0.28980088  0.38989685     0.23300
C1273       C  0.00264012  0.23481847  0.38141821    -0.51500
C1274       C  0.53828697  0.25281672  0.37827796     0.12500
C1275       C  0.50942206  0.26572152  0.42018285    -0.51000
C1276       C  0.54472667  0.28359564  0.41714865     0.13100
H1277       H  0.98535474  0.29955082  0.37481174     0.17600
H1278       H  0.58579929  0.30444394  0.38745076     0.03300
H1279       H  0.98583047  0.20840789  0.37442391     0.17900
H1280       H  0.49704103  0.25957868  0.43835459     0.17700
C1281       C  0.74720232  0.25609196  0.39567264     0.89500
C1282       C  0.71258674  0.23504631  0.38144501    -0.50800
C1283       C  0.69472301  0.25280066  0.37832448     0.12400
C1284       C  0.71310185  0.28987796  0.38978151     0.23300
C1285       C  0.76800569  0.29053173  0.38124163    -0.51500
C1286       C  0.75009442  0.30826229  0.37815405     0.12500
C1287       C  0.73711605  0.26642344  0.41999714    -0.51000
C1288       C  0.71933403  0.28393567  0.41702001     0.13100
H1289       H  0.70304694  0.20859986  0.37455525     0.17600
H1290       H  0.69852860  0.30426995  0.38737996     0.03300
H1291       H  0.79441537  0.30008671  0.37424641     0.17900
H1292       H  0.74327604  0.26015735  0.43815101     0.17700
C1293       C  0.74660046  0.01387056  0.39574193     0.89500
C1294       C  0.76764893  0.00031724  0.38151515    -0.50800
C1295       C  0.74990749  0.46469349  0.37843627     0.12400
C1296       C  0.71283158  0.44598425  0.38989932     0.23300
C1297       C  0.71210756  0.00015048  0.38133035    -0.51500
C1298       C  0.69438874  0.46451829  0.37826268     0.12500
C1299       C  0.73634302  0.49352326  0.42008453    -0.51000
C1300       C  0.71885735  0.45822284  0.41713118     0.13100
H1301       H  0.79410559  0.01723099  0.37462773     0.17600
H1302       H  0.69844963  0.41701791  0.38751495     0.03300
H1303       H  0.70251848  0.01695493  0.37432518     0.17900
H1304       H  0.74270077  0.50599724  0.43822861     0.17700
O1305       O  0.61216397  0.29332449  0.54645647    -0.78800
C1306       C  0.69552549  0.40339306  0.48149861     1.00500
O1307       O  0.67378324  0.40441764  0.49624303    -0.67900
O1308       O  0.61712747  0.34695895  0.48655032    -0.71500
Al1309     Al  0.63978445  0.36719523  0.51671103     1.49000
C1310       C  0.59981854  0.31490915  0.48142827     0.95800
O1311       O  0.65625730  0.29297932  0.48652372    -0.77800
O1312       O  0.70982992  0.34158280  0.54652196    -0.71300
Al1313     Al  0.63596663  0.29535748  0.51665968     1.90100
O1314       O  0.71111377  0.32946150  0.49618109    -0.70400
O1315       O  0.71488042  0.40263710  0.53677482    -0.70200
O1316       O  0.71031489  0.38612158  0.48659671    -0.75900
O1317       O  0.66153397  0.39094095  0.54653701    -0.74100
O1318       O  0.66120696  0.34198478  0.51712104    -1.10200
O1319       O  0.60046536  0.33493000  0.53668333    -0.69400
C1320       C  0.59475524  0.30864359  0.54964970     1.01300
C1321       C  0.68832799  0.30775749  0.48142173     0.97700
Al1322     Al  0.70786418  0.36339680  0.51672648     1.55600
O1323       O  0.59876340  0.29213285  0.49615035    -0.74100
C1324       C  0.69427322  0.40831953  0.54975673     1.01900
C1325       C  0.69443735  0.30885682  0.54970579     0.96700
O1326       O  0.66818763  0.28829699  0.53666911    -0.79400
C1327       C  0.66582359  0.09404275  0.24881738     0.89500
C1328       C  0.65225144  0.11511868  0.26296978    -0.50800
C1329       C  0.61661599  0.09737408  0.26605440     0.12400
C1330       C  0.59789935  0.06026643  0.25465356     0.23300
C1331       C  0.65214587  0.05964695  0.26329441    -0.51500
C1332       C  0.61648478  0.04191481  0.26635581     0.12500
C1333       C  0.64544113  0.08365596  0.22447533    -0.51000
C1334       C  0.61012455  0.06616973  0.22742372     0.13100
H1335       H  0.66916649  0.14159392  0.26981639     0.17600
H1336       H  0.56891698  0.04588855  0.25703446     0.03300
H1337       H  0.66898925  0.05012317  0.27034446     0.17900
H1338       H  0.65790704  0.08994643  0.20633151     0.17700
C1339       C  0.90766914  0.33654987  0.24857336     0.89500
C1340       C  0.94224572  0.34995210  0.26282163    -0.50800
C1341       C  0.96023923  0.38556028  0.26598178     0.12400
C1342       C  0.94202533  0.40441715  0.25454754     0.23300
C1343       C  0.88697349  0.35031992  0.26301657    -0.51500
C1344       C  0.90501692  0.38594890  0.26614569     0.12500
C1345       C  0.91787335  0.35699428  0.22426891    -0.51000
C1346       C  0.93580709  0.39228526  0.22729420     0.13100
H1347       H  0.95166619  0.33294530  0.26969424     0.17600
H1348       H  0.95670843  0.43337364  0.25699051     0.03300
H1349       H  0.86054043  0.33355883  0.26999884     0.17900
H1350       H  0.91170440  0.34459061  0.20610105     0.17700
C1351       C  0.90799654  0.09473533  0.24870067     0.89500
C1352       C  0.88704640  0.06018678  0.26297429    -0.50800
C1353       C  0.90488596  0.04240735  0.26608800     0.12400
C1354       C  0.94194347  0.06079884  0.25459508     0.23300
C1355       C  0.94250469  0.11563807  0.26308386    -0.51500
C1356       C  0.96031777  0.09781069  0.26617417     0.12500
C1357       C  0.91827662  0.08459600  0.22437593    -0.51000
C1358       C  0.93586763  0.06689324  0.22736066     0.13100
H1359       H  0.86058876  0.05061316  0.26987775     0.17600
H1360       H  0.95640133  0.04629113  0.25699664     0.03300
H1361       H  0.95204000  0.14204689  0.27005004     0.17900
H1362       H  0.91190707  0.09064731  0.20622102     0.17700
O1363       O  0.99357899  0.05730035  0.09802934    -0.78800
C1364       C  0.96709190  0.44735691  0.16302294     1.00500
O1365       O  0.94423952  0.44628515  0.14833665    -0.67900
O1366       O  0.94491589  0.00368138  0.15791215    -0.71500
Al1367     Al  0.94734560  0.48337776  0.12778390     1.49000
C1368       C  0.95966677  0.03572716  0.16303364     0.95800
O1369       O  0.53808233  0.05767731  0.15794101    -0.77800
O1370       O  0.54291373  0.00909174  0.09785274    -0.71300
Al1371     Al  0.51538573  0.05529545  0.12780420     1.90100
O1372       O  0.55657180  0.02136489  0.14814666    -0.70400
O1373       O  0.98704677  0.44799042  0.10776602    -0.70200
O1374       O  0.99915172  0.46467858  0.15787230    -0.75900
O1375       O  0.94531747  0.45953251  0.09799483    -0.74100
O1376       O  0.99399600  0.00866572  0.12734401    -1.10200
O1377       O  0.94026109  0.01555867  0.10774796    -0.69400
C1378       C  0.96083943  0.04188936  0.09480419     1.01300
C1379       C  0.55542386  0.04294403  0.16298192     0.97700
Al1380     Al  0.51929999  0.48734262  0.12770499     1.55600
O1381       O  0.98141888  0.05850733  0.14832226    -0.74100
C1382       C  0.96069836  0.44218203  0.09481277     1.01900
C1383       C  0.56026875  0.04181739  0.09466995     0.96700
O1384       O  0.55466330  0.06238252  0.10775857    -0.79400
C1385       C  0.57350631  0.19891649  0.33754796     0.05300
C1386       C  0.60550070  0.19877102  0.33755830     0.05200
C1387       C  0.60929837  0.17527215  0.32203495    -0.15300
C1388       C  0.58185501  0.15187202  0.30655089     0.05300
C1389       C  0.54983296  0.15195965  0.30659838     0.05200
C1390       C  0.54606908  0.17550660  0.32207744    -0.15300
H1391       H  0.52143033  0.17559111  0.32210305     0.07300
H1392       H  0.63392840  0.17517059  0.32202084     0.07300
C1393       C  0.80412896  0.39765687  0.33771091     0.05300
C1394       C  0.80412557  0.42970342  0.33780767     0.05200
C1395       C  0.82752980  0.45709792  0.32232411    -0.15300
C1396       C  0.85097867  0.45325117  0.30677615     0.05300
C1397       C  0.85107987  0.42125458  0.30675884     0.05200
C1398       C  0.82763291  0.39384553  0.32220670    -0.15300
H1399       H  0.82767344  0.36920046  0.32215821     0.07300
H1400       H  0.82748314  0.48174091  0.32236684     0.07300
C1401       C  0.57284974  0.39716837  0.33783243     0.05300
C1402       C  0.60491288  0.42923340  0.33782496     0.05200
C1403       C  0.60874517  0.45660036  0.32239311    -0.15300
C1404       C  0.58135131  0.45265952  0.30691154     0.05300
C1405       C  0.54935865  0.42052762  0.30681719     0.05200
C1406       C  0.54547913  0.39319236  0.32230668    -0.15300
H1407       H  0.52082934  0.36848804  0.32227332     0.07300
H1408       H  0.63339602  0.48130089  0.32242092     0.07300
C1409       C  0.82262758  0.42226609  0.72909108     0.89500
C1410       C  0.83603895  0.45687550  0.71493753    -0.50800
C1411       C  0.87167078  0.47487697  0.71181272     0.12400
C1412       C  0.89053869  0.45663407  0.72318628     0.23300
C1413       C  0.83641542  0.40164382  0.71458464    -0.51500
C1414       C  0.87206816  0.41969160  0.71149059     0.12500
C1415       C  0.84306166  0.43236627  0.75341337    -0.51000
C1416       C  0.87837251  0.45031085  0.75042647     0.13100
H1417       H  0.81902113  0.46631469  0.70810394     0.17600
H1418       H  0.91951550  0.47132448  0.72077503     0.03300
H1419       H  0.81964988  0.37525209  0.70753953     0.17900
H1420       H  0.83063447  0.42615251  0.77156977     0.17700
C1421       C  0.58034610  0.18052143  0.72907179     0.89500
C1422       C  0.60136156  0.16690088  0.71489126    -0.50800
C1423       C  0.58356956  0.13128034  0.71182788     0.12400
C1424       C  0.54647997  0.11262753  0.72327314     0.23300
C1425       C  0.54587647  0.16684117  0.71463872    -0.51500
C1426       C  0.52809837  0.13119621  0.71160025     0.08300
C1427       C  0.57002782  0.16020835  0.75342686    -0.51000
C1428       C  0.55248584  0.12490654  0.75049442     0.13100
H1429       H  0.62783140  0.18377325  0.70801136     0.17600
H1430       H  0.53206072  0.08365782  0.72090810     0.03300
H1431       H  0.53633231  0.18367028  0.70760815     0.17900
H1432       H  0.57636710  0.17270596  0.77156339     0.17700
C1433       C  0.58088463  0.42277864  0.72921195     0.89500
C1434       C  0.54632782  0.40178572  0.71490822    -0.50800
C1435       C  0.52850273  0.41957142  0.71175128     0.12400
C1436       C  0.54685305  0.45661940  0.72323930     0.23300
C1437       C  0.60177169  0.45724645  0.71482534    -0.51500
C1438       C  0.58389506  0.47500321  0.71169470     0.12500
C1439       C  0.57069877  0.43307089  0.75351548    -0.51000
C1440       C  0.55293849  0.45060214  0.75048957     0.13100
H1441       H  0.53678946  0.37534438  0.70800639     0.17600
H1442       H  0.53230501  0.47103082  0.72080089     0.03300
H1443       H  0.62820297  0.46679135  0.70787882     0.17900
H1444       H  0.57674937  0.42674147  0.77168361     0.17700
O1445       O  0.54328235  0.00830072  0.87981125    -0.78800
C1446       C  0.93323666  0.48172550  0.81480687     1.00500
O1447       O  0.93212048  0.45894649  0.82955742    -0.67900
O1448       O  0.98956033  0.45967074  0.81988436    -0.71500
Al1449     Al  0.96933147  0.46212429  0.85003984     1.49000
C1450       C  0.52162572  0.47441766  0.81475835     0.95800
O1451       O  0.54367653  0.05283432  0.81994601    -0.77800
O1452       O  0.99500542  0.05767735  0.87993410    -0.71300
Al1453     Al  0.54125970  0.03011296  0.85005210     1.90100
O1454       O  0.00723984  0.07122046  0.82965033    -0.70400
O1455       O  0.93389762  0.00176208  0.87007700    -0.70200
O1456       O  0.95055181  0.01377993  0.81993361    -0.75900
O1457       O  0.94559392  0.46016240  0.87986948    -0.74100
O1458       O  0.99460616  0.00873997  0.85048810    -1.10200
O1459       O  0.50156701  0.45503638  0.87000572    -0.69400
C1460       C  0.52791115  0.47558379  0.88296865     1.01300
C1461       C  0.52893135  0.07015200  0.81488075     0.97700
Al1462     Al  0.97322563  0.03399173  0.85010314     1.55600
O1463       O  0.54443101  0.99616360  0.82948558    -0.74100
C1464       C  0.92821669  0.47551571  0.88307160     1.01900
C1465       C  0.52774631  0.07500997  0.88315232     0.96700
O1466       O  0.54833468  0.06934758  0.87012997    -0.79400
C1467       C  0.74153797  0.00327252  0.58206203     0.89500
C1468       C  0.77620559  0.01684332  0.59621620    -0.50800
C1469       C  0.79409812  0.05246069  0.59931558     0.12400
C1470       C  0.77570577  0.07115991  0.58791105     0.23300
C1471       C  0.72081535  0.01697706  0.59654932    -0.51500
C1472       C  0.73876926  0.05262149  0.59961156     0.12500
C1473       C  0.75153421  0.02362296  0.55772334    -0.51000
C1474       C  0.76935210  0.05891986  0.56068374     0.13100
H1475       H  0.78573156  0.49992572  0.60310725     0.17600
H1476       H  0.79030808  0.10012614  0.59029876     0.03300
H1477       H  0.69442599  0.50016980  0.60358809     0.17900
H1478       H  0.74528955  0.01115407  0.53957672     0.17700
C1479       C  0.99973937  0.26089226  0.58198084     0.89500
C1480       C  0.98627344  0.28202683  0.59618280    -0.50800
C1481       C  0.95065223  0.26432391  0.59935634     0.12400
C1482       C  0.93184344  0.22719709  0.58799441     0.23300
C1483       C  0.98609175  0.22651458  0.59648114    -0.51500
C1484       C  0.95044652  0.20882803  0.59963613     0.12500
C1485       C  0.97922582  0.25047926  0.55768992    -0.51000
C1486       C  0.94392068  0.23303208  0.56073386     0.13100
H1487       H  0.50324609  0.30851288  0.60299083     0.17600
H1488       H  0.90287369  0.21285343  0.59045102     0.03300
H1489       H  0.50294342  0.21697041  0.60347951     0.17900
H1490       H  0.99159517  0.25670898  0.53951429     0.17700
C1491       C  0.74192912  0.26150902  0.58215260     0.89500
C1492       C  0.72093813  0.22697367  0.59644132    -0.50800
C1493       C  0.73872193  0.20913215  0.59954637     0.12400
C1494       C  0.77576723  0.22745705  0.58802483     0.23300
C1495       C  0.77645709  0.28236058  0.59651453    -0.51500
C1496       C  0.79421805  0.26448261  0.59959380     0.12500
C1497       C  0.75214196  0.25131505  0.55782244    -0.51000
C1498       C  0.76966890  0.23354602  0.56078891     0.13100
H1499       H  0.69449789  0.21745551  0.60336121     0.17600
H1500       H  0.79018159  0.21290498  0.59041773     0.03300
H1501       H  0.78604852  0.30878349  0.60347410     0.17900
H1502       H  0.74576120  0.25737049  0.53967206     0.17700
O1503       O  0.87651739  0.17551963  0.43137562    -0.78800
C1504       C  0.79314856  0.20224205  0.49637064     1.00500
O1505       O  0.81489206  0.22501839  0.48164646    -0.67900
O1506       O  0.87154655  0.22418838  0.49133128    -0.71500
Al1507     Al  0.84889609  0.22178795  0.46116500     1.49000
C1508       C  0.88883411  0.20941927  0.49644110     0.95800
O1509       O  0.83237129  0.13107688  0.49126060    -0.77800
O1510       O  0.77884729  0.12617509  0.43126930    -0.71300
Al1511     Al  0.85268914  0.15375137  0.46115048     1.90100
O1512       O  0.77752493  0.11273862  0.48158888    -0.70400
O1513       O  0.77380559  0.18217827  0.44106671    -0.70200
O1514       O  0.77834657  0.17019456  0.49122962    -0.75900
O1515       O  0.82715977  0.22380872  0.43133898    -0.74100
O1516       O  0.82746291  0.17516072  0.46071086    -1.10200
O1517       O  0.88821478  0.22882168  0.44118937    -0.69400
C1518       C  0.89392405  0.20824109  0.42820419     1.01300
C1519       C  0.80029536  0.11378316  0.49633947     0.97700
Al1520     Al  0.78080388  0.14994034  0.46108375     1.55600
O1521       O  0.88988408  0.18769874  0.48169395    -0.74100
C1522       C  0.79442317  0.20845027  0.42809522     1.01900
C1523       C  0.79421051  0.10880614  0.42808323     0.96700
O1524       O  0.82046606  0.11449034  0.44110852    -0.79400
C1525       C  0.93938698  0.36567410  0.67089085     0.05300
C1526       C  0.90738237  0.36579805  0.67084271     0.05200
C1527       C  0.87996592  0.34233888  0.65537677    -0.15300
C1528       C  0.88377696  0.31878925  0.63992764     0.05300
C1529       C  0.91584032  0.31878183  0.63988427     0.05200
C1530       C  0.94324738  0.34220768  0.65537725    -0.15300
H1531       H  0.96789675  0.34214624  0.65538256     0.07300
H1532       H  0.85530773  0.34238185  0.65538556     0.07300
C1533       C  0.63790826  0.09638324  0.67128053     0.05300
C1534       C  0.63797402  0.06437156  0.67122754     0.05200
C1535       C  0.66149495  0.06057350  0.65573766    -0.15300
C1536       C  0.68490369  0.08796731  0.64026357     0.05300
C1537       C  0.68477524  0.11995317  0.64025677     0.05200
C1538       C  0.66129814  0.12377961  0.65578953    -0.15300
H1539       H  0.66121087  0.14840183  0.65580999     0.07300
H1540       H  0.66156648  0.03594348  0.65571168     0.07300
C1541       C  0.90655414  0.06405817  0.67119112     0.05300
C1542       C  0.93866675  0.09606921  0.67116949     0.05200
C1543       C  0.94258285  0.12346200  0.65573062    -0.15300
C1544       C  0.91522095  0.11959645  0.64024789     0.05300
C1545       C  0.88317566  0.08751608  0.64016479     0.05200
C1546       C  0.87921081  0.06015802  0.65566820    -0.15300
H1547       H  0.85452389  0.03549251  0.65563881     0.07300
H1548       H  0.96727510  0.14811998  0.65575146     0.07300
C1549       C  0.77992985  0.22135174  0.53944368    -0.10300
C1550       C  0.78595383  0.21276274  0.51970161    -0.11900
C1551       C  0.82742840  0.27974143  0.61259352    -0.10300
C1552       C  0.85428670  0.29576318  0.62437099    -0.11900
C1553       C  0.72342080  0.17600804  0.61260899    -0.10300
C1554       C  0.70754154  0.14929446  0.62452521    -0.11900
C1555       C  0.90662013  0.21665430  0.51974691    -0.10300
C1556       C  0.92134978  0.22272187  0.53944576    -0.11900
C1557       C  0.93292130  0.27979667  0.61233364    -0.10300
C1558       C  0.92222519  0.29584806  0.62419618    -0.11900
C1559       C  0.92168985  0.14900860  0.62463971    -0.10300
C1560       C  0.93251415  0.17576336  0.61277508    -0.11900
C1561       C  0.78130219  0.08134871  0.53934307    -0.10300
C1562       C  0.78975622  0.09599793  0.51962355    -0.11900
C1563       C  0.82723762  0.07026487  0.61239012    -0.10300
C1564       C  0.85391051  0.08103326  0.62436807    -0.11900
C1565       C  0.70783581  0.08155415  0.62458770    -0.10300
C1566       C  0.72369086  0.07063862  0.61271417    -0.11900
C1567       C  0.54074048  0.46095655  0.77178098    -0.10300
C1568       C  0.53213092  0.46709886  0.79147037    -0.11900
C1569       C  0.99539334  0.40428566  0.69863747    -0.10300
C1570       C  0.96870448  0.38842209  0.68666717    -0.11900
C1571       C  0.59913050  0.00814167  0.69865605    -0.10300
C1572       C  0.61506187  0.03493497  0.68683241    -0.11900
C1573       C  0.53613197  0.08790595  0.79158391    -0.10300
C1574       C  0.54218204  0.10251649  0.77185393    -0.11900
C1575       C  0.99492234  0.11324038  0.69856277    -0.10300
C1576       C  0.96809836  0.10244801  0.68675404    -0.11900
C1577       C  0.59893048  0.11343709  0.69886360    -0.10300
C1578       C  0.61496440  0.10273159  0.68698900    -0.11900
C1579       C  0.90086186  0.46255404  0.77175402    -0.10300
C1580       C  0.91551041  0.47119039  0.79148147    -0.11900
C1581       C  0.88934587  0.00803674  0.69880053    -0.10300
C1582       C  0.90005889  0.03474028  0.68690151    -0.11900
C1583       C  0.90098578  0.38877238  0.68648355    -0.10300
C1584       C  0.89012113  0.40466834  0.69836161    -0.11900
C1585       C  0.95238454  0.04624026  0.18632602    -0.10300
C1586       C  0.94624982  0.05478844  0.20603932    -0.11900
C1587       C  0.99350521  0.11307861  0.27920180    -0.10300
C1588       C  0.52034483  0.12903064  0.29100770    -0.11900
C1589       C  0.88962278  0.00928448  0.27913653    -0.10300
C1590       C  0.87374935  0.48258738  0.29105206    -0.11900
C1591       C  0.94803430  0.41480707  0.20599865    -0.10300
C1592       C  0.95663016  0.42954401  0.18631041    -0.11900
C1593       C  0.99336864  0.40324212  0.27907958    -0.10300
C1594       C  0.52005269  0.41398895  0.29104312    -0.11900
C1595       C  0.87405017  0.41486775  0.29109966    -0.10300
C1596       C  0.88994969  0.40398969  0.27923656    -0.11900
C1597       C  0.57310747  0.05001555  0.18631811    -0.10300
C1598       C  0.58769044  0.05594440  0.20606708    -0.11900
C1599       C  0.59853478  0.00882452  0.27945901    -0.10300
C1600       C  0.58773513  0.48205497  0.29131706    -0.11900
C1601       C  0.59881753  0.11279841  0.27900170    -0.10300
C1602       C  0.58815846  0.12888363  0.29086175    -0.11900
C1603       C  0.70870095  0.43720415  0.56686130    -0.10300
C1604       C  0.72262138  0.46542009  0.57701135    -0.11900
C1605       C  0.70878110  0.29437851  0.56685551    -0.10300
C1606       C  0.72297431  0.28040119  0.57706312    -0.11900
C1607       C  0.53759017  0.27982572  0.57685267    -0.10300
C1608       C  0.56581532  0.29414551  0.56670665    -0.11900
C1609       C  0.76554893  0.05172543  0.40079829    -0.10300
C1610       C  0.77980283  0.07993501  0.41096205    -0.11900
C1611       C  0.70272308  0.42115319  0.45819500    -0.10300
C1612       C  0.70869155  0.43579866  0.43847723    -0.11900
C1613       C  0.76527704  0.44687109  0.36544577    -0.10300
C1614       C  0.78124765  0.43610621  0.35355310    -0.11900
C1615       C  0.63437480  0.43569296  0.35341209    -0.10300
C1616       C  0.66121006  0.44653529  0.36522025    -0.11900
C1617       C  0.76609041  0.23713476  0.40076531    -0.10300
C1618       C  0.78000521  0.22287113  0.41096031    -0.11900
C1619       C  0.70731780  0.29438771  0.43836054    -0.10300
C1620       C  0.69884601  0.30054131  0.45810108    -0.11900
C1621       C  0.66157926  0.23746570  0.36524146    -0.10300
C1622       C  0.63486804  0.22154708  0.35329634    -0.11900
C1623       C  0.78119571  0.36820419  0.35329649    -0.10300
C1624       C  0.76527815  0.34139331  0.36510461    -0.11900
C1625       C  0.92285651  0.22267263  0.41114506    -0.10300
C1626       C  0.95107969  0.23659284  0.40099921    -0.11900
C1627       C  0.58201372  0.30438199  0.45813556    -0.10300
C1628       C  0.56728344  0.29578733  0.43843802    -0.11900
C1629       C  0.55568732  0.34117838  0.36545389    -0.10300
C1630       C  0.56640877  0.36787461  0.35354681    -0.11900
C1631       C  0.56713567  0.22186390  0.35323342    -0.10300
C1632       C  0.55628272  0.23774403  0.36513976    -0.11900
C1633       C  0.87462419  0.12739897  0.23344213    -0.10300
C1634       C  0.88894545  0.11352725  0.24361341    -0.11900
C1635       C  0.87462944  0.27045259  0.23336650    -0.10300
C1636       C  0.88863957  0.29870364  0.24347431    -0.11900
C1637       C  0.70368430  0.11301855  0.24376666    -0.10300
C1638       C  0.73187005  0.12732638  0.23357470    -0.11900
C1639       C  0.93253366  0.07069653  0.06758631    -0.10300
C1640       C  0.94638912  0.05634511  0.07773421    -0.11900
C1641       C  0.86473108  0.13370999  0.12476886    -0.10300
C1642       C  0.87348928  0.12778314  0.10506264    -0.11900
C1643       C  0.94774166  0.20163580  0.01988600    -0.10300
C1644       C  0.93177262  0.17488183  0.03174804    -0.11900
C1645       C  0.94623313  0.41320632  0.07778345    -0.10300
C1646       C  0.93202619  0.38496008  0.06767239    -0.11900
C1647       C  0.87499807  0.26888101  0.10515788    -0.10300
C1648       C  0.86873660  0.25416074  0.12485369    -0.11900
C1649       C  0.82812161  0.27967741  0.03178158    -0.10300
C1650       C  0.80137064  0.26881819  0.01988203    -0.11900
C1651       C  0.93224026  0.28043461  0.03214664    -0.10300
C1652       C  0.94814097  0.26968227  0.02015578    -0.11900
C1653       C  0.58904517  0.05627560  0.07747653    -0.10300
C1654       C  0.61721823  0.07018342  0.06725934    -0.11900
C1655       C  0.73314376  0.12881895  0.10505458    -0.10300
C1656       C  0.74773610  0.13732857  0.12480851    -0.11900
C1657       C  0.72239006  0.17441195  0.03183339    -0.10300
C1658       C  0.73327181  0.20112301  0.01991203    -0.11900
C1659       C  0.82795888  0.07089153  0.03219841    -0.10300
C1660       C  0.80119038  0.05478305  0.02035626    -0.11900
C1661       C  0.73317820  0.05455321  0.02016229    -0.10300
C1662       C  0.72229656  0.07055037  0.03190871    -0.11900
C1663       C  0.78476998  0.40323805  0.73417110    -0.10300
C1664       C  0.75656451  0.38925135  0.74434093    -0.11900
C1665       C  0.61368786  0.24657382  0.74425628    -0.10300
C1666       C  0.59936376  0.21837084  0.73409607    -0.11900
C1667       C  0.59972555  0.40377515  0.73431959    -0.10300
C1668       C  0.61362719  0.38944369  0.74443972    -0.11900
C1669       C  0.54219040  0.10383725  0.90029691    -0.10300
C1670       C  0.55606610  0.13204033  0.91045689    -0.11900
C1671       C  0.61483827  0.24788938  0.87266310    -0.10300
C1672       C  0.62351264  0.26253148  0.85294577    -0.11900
C1673       C  0.66055244  0.23709013  0.94567874    -0.10300
C1674       C  0.68730685  0.24781522  0.95754873    -0.11900
C1675       C  0.54060463  0.24794542  0.95766378    -0.10300
C1676       C  0.55662906  0.23712041  0.94588907    -0.11900
C1677       C  0.89934353  0.46111851  0.90019161    -0.10300
C1678       C  0.87114444  0.44686212  0.91037946    -0.11900
C1679       C  0.74043543  0.38339769  0.85304616    -0.10300
C1680       C  0.75506300  0.38956971  0.87278981    -0.11900
C1681       C  0.76608862  0.34246838  0.94599850    -0.10300
C1682       C  0.75523554  0.31565054  0.95779166    -0.11900
C1683       C  0.76620335  0.44629525  0.94598303    -0.10300
C1684       C  0.75535661  0.46214264  0.95794360    -0.11900
C1685       C  0.55662574  0.44711631  0.91010977    -0.10300
C1686       C  0.54237774  0.46110016  0.89999734    -0.11900
C1687       C  0.61968044  0.37927495  0.85295713    -0.10300
C1688       C  0.61356346  0.38790379  0.87264453    -0.11900
C1689       C  0.55637164  0.34237947  0.94552881    -0.10300
C1690       C  0.54038900  0.31569241  0.95744698    -0.11900
C1691       C  0.66050699  0.44576471  0.94604970    -0.10300
C1692       C  0.68722154  0.46164826  0.95798649    -0.11900
C1693       C  0.57545103  0.92811593  0.91520965     0.89500
C1694       C  0.55421971  0.89350220  0.92935861    -0.50800
C1695       C  0.57185638  0.87553043  0.93251245     0.12400
C1696       C  0.60900381  0.89380219  0.92117741     0.23300
C1697       C  0.60985024  0.94876328  0.92974463    -0.51500
C1698       C  0.62745390  0.93073781  0.93287233     0.12500
C1699       C  0.58583951  0.91803251  0.89090449    -0.51000
C1700       C  0.60321696  0.90011996  0.89393031     0.13100
H1701       H  0.52773951  0.88404178  0.93617125     0.17600
H1702       H  0.62329507  0.87913498  0.92361658     0.03300
H1703       H  0.61946311  0.97514707  0.93679118     0.17900
H1704       H  0.57966549  0.92424116  0.87273644     0.17700
C1705       C  0.83327037  0.92785495  0.91547506     0.89500
C1706       C  0.81967037  0.94882722  0.92974599    -0.50800
C1707       C  0.78403346  0.93101733  0.93286683     0.12400
C1708       C  0.76535130  0.89396476  0.92136888     0.23300
C1709       C  0.81965008  0.89339110  0.92986403    -0.51500
C1710       C  0.78399384  0.87560478  0.93295589     0.12500
C1711       C  0.81284534  0.91755398  0.89115105    -0.51000
C1712       C  0.77753369  0.89999209  0.89412800     0.13100
H1713       H  0.83656912  0.97526643  0.93665942     0.17600
H1714       H  0.73637223  0.87952840  0.92377199     0.03300
H1715       H  0.83652931  0.88386291  0.93683413     0.17900
H1716       H  0.82527999  0.92387939  0.87299718     0.17700
C1717       C  0.57486044  0.66989806  0.91546444     0.89500
C1718       C  0.60950378  0.68356833  0.92965754    -0.50800
C1719       C  0.62732134  0.71918948  0.93271420     0.12400
C1720       C  0.60886973  0.73779421  0.92124774     0.23300
C1721       C  0.55403411  0.68354119  0.92987913    -0.51500
C1722       C  0.57188862  0.71918920  0.93290483     0.12500
C1723       C  0.58487221  0.69020322  0.89110315    -0.51000
C1724       C  0.60263288  0.72550840  0.89402819     0.13100
H1725       H  0.61911828  0.66672802  0.93654637     0.17600
H1726       H  0.62341442  0.76676490  0.92360696     0.03300
H1727       H  0.52764337  0.66668720  0.93690069     0.17900
H1728       H  0.57875006  0.67769868  0.87297001     0.17700
O1729       O  0.66085266  0.89027498  0.76461622    -0.78800
C1730       C  0.63412827  0.78031320  0.82965748     1.00500
O1731       O  0.61138896  0.77922764  0.81486102    -0.67900
O1732       O  0.61220785  0.83668574  0.82457078    -0.71500
Al1733     Al  0.61464121  0.81646170  0.79441189     1.49000
C1734       C  0.62695433  0.86874494  0.82967141     0.95800
O1735       O  0.70540867  0.89085077  0.82455412    -0.77800
O1736       O  0.71039127  0.84208810  0.76470312    -0.71300
Al1737     Al  0.68267439  0.88833603  0.79442061     1.90100
O1738       O  0.72372221  0.85430568  0.81503023    -0.70400
O1739       O  0.65433410  0.78107171  0.77443009    -0.70200
O1740       O  0.66621740  0.79765201  0.82461445    -0.75900
O1741       O  0.61272082  0.79277517  0.76458223    -0.74100
O1742       O  0.66129765  0.84171528  0.79401837    -1.10200
O1743       O  0.60754337  0.84868812  0.77445793    -0.69400
C1744       C  0.62810259  0.87495893  0.76146689     1.01300
C1745       C  0.72268372  0.87609074  0.82971912     0.97700
Al1746     Al  0.68654926  0.82033161  0.79448348     1.55600
O1747       O  0.64867788  0.89152275  0.81493607    -0.74100
C1748       C  0.62809622  0.77541965  0.76139027     1.01900
C1749       C  0.72769697  0.87479893  0.76145583     0.96700
O1750       O  0.72194883  0.89537994  0.77440474    -0.79400
C1751       C  0.74868819  0.98483838  0.97368389     0.05300
C1752       C  0.71650831  0.98461089  0.97369375     0.05200
C1753       C  0.71243687  0.50800344  0.98914923    -0.15300
C1754       C  0.73974068  0.53160549  0.00462387     0.05300
C1755       C  0.77188143  0.53175341  0.00469181     0.05200
C1756       C  0.77597054  0.50837828  0.98922583    -0.15300
H1757       H  0.80073076  0.50853837  0.98925162     0.07300
H1758       H  0.68768953  0.50786818  0.98910401     0.07300
C1759       C  0.65507721  0.58899354  0.06222190     0.89500
C1760       C  0.66879142  0.62355596  0.04795298    -0.50800
C1761       C  0.70444042  0.64130816  0.04490205     0.12400
C1762       C  0.72301519  0.62287641  0.05645986     0.23300
C1763       C  0.66868583  0.56807546  0.04788493    -0.51500
C1764       C  0.70435447  0.58586846  0.04486504     0.12500
C1765       C  0.67540822  0.59909671  0.08658549    -0.51000
C1766       C  0.71072919  0.61677064  0.08367650     0.13100
H1767       H  0.65196055  0.63315127  0.04099864     0.17600
H1768       H  0.75200350  0.63735849  0.05411354     0.03300
H1769       H  0.65179208  0.54167448  0.04090318     0.17900
H1770       H  0.66290544  0.59303487  0.10471571     0.17700
C1771       C  0.91319192  0.84711702  0.06257714     0.89500
C1772       C  0.93442387  0.83371965  0.04841265    -0.50800
C1773       C  0.91679153  0.79811176  0.04525077     0.12400
C1774       C  0.87965189  0.77925133  0.05660596     0.23300
C1775       C  0.87878069  0.83334253  0.04805182    -0.51500
C1776       C  0.86118417  0.79771478  0.04492280     0.12500
C1777       C  0.90282277  0.82667862  0.08688091    -0.51000
C1778       C  0.88544184  0.79138993  0.08385701     0.13100
H1779       H  0.96088842  0.85073313  0.04157504     0.17600
H1780       H  0.86536167  0.75029473  0.05416421     0.03300
H1781       H  0.86915162  0.85009811  0.04101701     0.17900
H1782       H  0.90896860  0.83908409  0.10504903     0.17700
C1783       C  0.91368740  0.58969111  0.06247746     0.89500
C1784       C  0.87905327  0.56860583  0.04828797    -0.50800
C1785       C  0.86119112  0.58635127  0.04514348     0.12400
C1786       C  0.87959194  0.62346833  0.05651654     0.23300
C1787       C  0.93447904  0.62407445  0.04798813    -0.51500
C1788       C  0.91657614  0.64180611  0.04486429     0.12500
C1789       C  0.90363579  0.60010908  0.08678356    -0.51000
C1790       C  0.88582494  0.61759015  0.08376449     0.13100
H1791       H  0.86946923  0.54211425  0.04147570     0.17600
H1792       H  0.86500674  0.63784326  0.05408378     0.03300
H1793       H  0.96087534  0.63359150  0.04097715     0.17900
H1794       H  0.90973781  0.59382440  0.10494973     0.17700
O1795       O  0.87550854  0.67459119  0.21322015    -0.78800
C1796       C  0.76547458  0.64784777  0.14813052     1.00500
O1797       O  0.76445001  0.62508692  0.16284947    -0.67900
O1798       O  0.82199966  0.62603610  0.15312795    -0.71500
Al1799     Al  0.80172038  0.62835611  0.18330437     1.49000
C1800       C  0.85409298  0.64079740  0.14808421     0.95800
O1801       O  0.87609682  0.71906743  0.15327841    -0.77800
O1802       O  0.82738737  0.72409531  0.21314634    -0.71300
Al1803     Al  0.87360392  0.69637744  0.18340676     1.90100
O1804       O  0.83947916  0.73732402  0.16279676    -0.70400
O1805       O  0.76633324  0.66800644  0.20345551    -0.70200
O1806       O  0.78276455  0.67989310  0.15325820    -0.75900
O1807       O  0.77797775  0.62631952  0.21312588    -0.74100
O1808       O  0.82695033  0.67499063  0.18378234    -1.10200
O1809       O  0.83399127  0.62129244  0.20326995    -0.69400
C1810       C  0.86020100  0.64185922  0.21634067     1.01300
C1811       C  0.86131724  0.73632896  0.14812733     0.97700
Al1812     Al  0.80554003  0.70020981  0.18337223     1.55600
O1813       O  0.87683495  0.66239737  0.16291292    -0.74100
C1814       C  0.76066471  0.64172118  0.21641220     1.01900
C1815       C  0.86013084  0.74146756  0.21633575     0.96700
O1816       O  0.88068706  0.73567768  0.20339066    -0.79400
C1817       C  0.51760401  0.75440543  0.97325949     0.05300
C1818       C  0.51757538  0.78643832  0.97321500     0.05200
C1819       C  0.99422452  0.79042838  0.98877668    -0.15300
C1820       C  0.97083883  0.76313298  0.00433444     0.05300
C1821       C  0.97071019  0.73102084  0.00425817     0.05200
C1822       C  0.99412431  0.72707120  0.98874495    -0.15300
H1823       H  0.99409309  0.70239110  0.98873869     0.07300
H1824       H  0.99426756  0.81511655  0.98879150     0.07300
C1825       C  0.71659980  0.75412272  0.97323473     0.05300
C1826       C  0.74870090  0.78614318  0.97331638     0.05200
C1827       C  0.77603762  0.78989624  0.98877344    -0.15300
C1828       C  0.77203389  0.76245582  0.00419609     0.05300
C1829       C  0.73988705  0.73047810  0.00418832     0.05200
C1830       C  0.71257631  0.72668650  0.98867786    -0.15300
H1831       H  0.68784468  0.70206513  0.98864335     0.07300
H1832       H  0.80075905  0.81452584  0.98881989     0.07300
C1833       C  0.98893406  0.75555034  0.39588459     0.89500
C1834       C  0.00235783  0.79010871  0.38166338    -0.50800
C1835       C  0.53798166  0.80805491  0.37849745     0.12400
C1836       C  0.55683103  0.78980936  0.38989181     0.23300
C1837       C  0.00264276  0.73482893  0.38141001    -0.51500
C1838       C  0.53828937  0.75282879  0.37826708     0.12500
C1839       C  0.50942984  0.76571946  0.42018141    -0.51000
C1840       C  0.54473428  0.78359477  0.41714481     0.13100
H1841       H  0.98535412  0.79956065  0.37482223     0.17600
H1842       H  0.58580227  0.80445393  0.38744337     0.03300
H1843       H  0.98583229  0.70841994  0.37441242     0.17900
H1844       H  0.49705149  0.75957014  0.43835371     0.17700
C1845       C  0.74719264  0.75607753  0.39566977     0.89500
C1846       C  0.71257129  0.73503512  0.38144841    -0.50800
C1847       C  0.69471356  0.75279557  0.37832952     0.12400
C1848       C  0.71310235  0.78987468  0.38978386     0.23300
C1849       C  0.76799674  0.79051408  0.38123442    -0.51500
C1850       C  0.75009067  0.80825096  0.37815044     0.12500
C1851       C  0.73711924  0.76641812  0.41999562    -0.51000
C1852       C  0.71934250  0.78393585  0.41702126     0.13100
H1853       H  0.70302500  0.70858692  0.37455888     0.17600
H1854       H  0.69853336  0.80427138  0.38738472     0.03300
H1855       H  0.79440384  0.80006357  0.37423564     0.17900
H1856       H  0.74328343  0.76015371  0.43814837     0.17700
C1857       C  0.74661201  0.51387483  0.39574254     0.89500
C1858       C  0.76766017  0.50031582  0.38152241    -0.50800
C1859       C  0.74990081  0.96469473  0.37842841     0.12400
C1860       C  0.71282796  0.94597991  0.38989656     0.23300
C1861       C  0.71212395  0.50015906  0.38132537    -0.51500
C1862       C  0.69437684  0.96451004  0.37826593     0.12500
C1863       C  0.73634171  0.99351734  0.42008342    -0.51000
C1864       C  0.71886066  0.95821688  0.41712906     0.13100
H1865       H  0.79411867  0.51722582  0.37463728     0.17600
H1866       H  0.69844947  0.91701376  0.38751135     0.03300
H1867       H  0.70253990  0.51696658  0.37431683     0.17900
H1868       H  0.74270344  0.00599031  0.43822767     0.17700
O1869       O  0.61216820  0.79331478  0.54645530    -0.78800
C1870       C  0.69553971  0.90338364  0.48149579     1.00500
O1871       O  0.67379195  0.90440537  0.49623628    -0.67900
O1872       O  0.61713770  0.84694421  0.48654638    -0.71500
Al1873     Al  0.63979347  0.86718611  0.51670665     1.49000
C1874       C  0.59983115  0.81489429  0.48142428     0.95800
O1875       O  0.65627686  0.79297257  0.48652898    -0.77800
O1876       O  0.70983764  0.84158281  0.54652848    -0.71300
Al1877     Al  0.63597936  0.79534973  0.51666159     1.90100
O1878       O  0.71113110  0.82945721  0.49618984    -0.70400
O1879       O  0.71488887  0.90263532  0.53677544    -0.70200
O1880       O  0.71033118  0.88611537  0.48659829    -0.75900
O1881       O  0.66154095  0.89093885  0.54653190    -0.74100
O1882       O  0.66121785  0.84197794  0.51712168    -1.10200
O1883       O  0.60047429  0.83492275  0.53667987    -0.69400
C1884       C  0.59475990  0.80863500  0.54964626     1.01300
C1885       C  0.68834813  0.80775416  0.48142868     0.97700
Al1886     Al  0.70787603  0.86339306  0.51673061     1.55600
O1887       O  0.59877825  0.79211933  0.49614666    -0.74100
C1888       C  0.69427976  0.90831889  0.54975401     1.01900
C1889       C  0.69444582  0.80885734  0.54971400     0.96700
O1890       O  0.66819878  0.78829474  0.53667628    -0.79400
C1891       C  0.66581454  0.59402679  0.24881981     0.89500
C1892       C  0.65224733  0.61510871  0.26296940    -0.50800
C1893       C  0.61661261  0.59736900  0.26605570     0.12400
C1894       C  0.59789075  0.56025892  0.25465914     0.23300
C1895       C  0.65213439  0.55963381  0.26330061    -0.51500
C1896       C  0.61647352  0.54190579  0.26636343     0.12500
C1897       C  0.64542970  0.58363668  0.22447842    -0.51000
C1898       C  0.61011304  0.56615564  0.22742876     0.13100
H1899       H  0.66916574  0.64158599  0.26981271     0.17600
H1900       H  0.56890856  0.54588488  0.25704130     0.03300
H1901       H  0.66897603  0.55010839  0.27035172     0.17900
H1902       H  0.65789334  0.58992387  0.20633485     0.17700
C1903       C  0.90767425  0.83654700  0.24856955     0.89500
C1904       C  0.94225381  0.84995591  0.26281539    -0.50800
C1905       C  0.96024106  0.88556411  0.26597606     0.12400
C1906       C  0.94201887  0.90441405  0.25454446     0.23300
C1907       C  0.88697464  0.85031000  0.26301509    -0.51500
C1908       C  0.90501199  0.88593863  0.26614449     0.12500
C1909       C  0.91787189  0.85699156  0.22426541    -0.51000
C1910       C  0.93579980  0.89228227  0.22729145     0.13100
H1911       H  0.95168071  0.83295312  0.26968660     0.17600
H1912       H  0.95669664  0.93337046  0.25698753     0.03300
H1913       H  0.86054303  0.83354443  0.26999877     0.17900
H1914       H  0.91170422  0.84458837  0.20609714     0.17700
C1915       C  0.90800533  0.59474742  0.24869388     0.89500
C1916       C  0.88705431  0.56020638  0.26297599    -0.50800
C1917       C  0.90488877  0.54242211  0.26609153     0.12400
C1918       C  0.94194216  0.56080192  0.25459279     0.23300
C1919       C  0.94251905  0.61565132  0.26306989    -0.51500
C1920       C  0.96032689  0.59781961  0.26616291     0.12500
C1921       C  0.91827290  0.58459256  0.22437050    -0.51000
C1922       C  0.93585773  0.56688415  0.22735784     0.13100
H1923       H  0.86059921  0.55063991  0.26988161     0.17600
H1924       H  0.95639562  0.54629010  0.25699619     0.03300
H1925       H  0.95206166  0.64206472  0.27003038     0.17900
H1926       H  0.91189837  0.59063647  0.20621466     0.17700
O1927       O  0.99356650  0.55730084  0.09803388    -0.78800
C1928       C  0.96708406  0.94735526  0.16302346     1.00500
O1929       O  0.94423267  0.94629484  0.14834244    -0.67900
O1930       O  0.94489615  0.50365833  0.15790708    -0.71500
Al1931     Al  0.94734891  0.98338890  0.12778960     1.49000
C1932       C  0.95963949  0.53570236  0.16303260     0.95800
O1933       O  0.53806146  0.55767540  0.15795000    -0.77800
O1934       O  0.54291347  0.50910891  0.09785399    -0.71300
Al1935     Al  0.51536945  0.55529482  0.12781017     1.90100
O1936       O  0.55657513  0.52138607  0.14814633    -0.70400
O1937       O  0.98703257  0.94798507  0.10776221    -0.70200
O1938       O  0.99914274  0.96466597  0.15786892    -0.75900
O1939       O  0.94530298  0.95953257  0.09800239    -0.74100
O1940       O  0.99399123  0.50866648  0.12734474    -1.10200
O1941       O  0.94025045  0.51554516  0.10774214    -0.69400
C1942       C  0.96082779  0.54188304  0.09480330     1.01300
C1943       C  0.55541385  0.54295226  0.16298712     0.97700
Al1944     Al  0.51929385  0.98732970  0.12770300     1.55600
O1945       O  0.98139109  0.55848950  0.14832491    -0.74100
C1946       C  0.96068023  0.94217955  0.09481479     1.01900
C1947       C  0.56026189  0.54183553  0.09467327     0.96700
O1948       O  0.55465421  0.56239555  0.10776666    -0.79400
C1949       C  0.57351346  0.69893785  0.33752946     0.05300
C1950       C  0.60550577  0.69878825  0.33754627     0.05200
C1951       C  0.60930577  0.67528849  0.32202505    -0.15300
C1952       C  0.58186441  0.65188855  0.30653931     0.05300
C1953       C  0.54984391  0.65197864  0.30658163     0.05200
C1954       C  0.54607899  0.67552923  0.32205626    -0.15300
H1955       H  0.52144207  0.67561533  0.32207797     0.07300
H1956       H  0.63393336  0.67518385  0.32201566     0.07300
C1957       C  0.80412658  0.89765192  0.33771401     0.05300
C1958       C  0.80412399  0.92969942  0.33780715     0.05200
C1959       C  0.82752978  0.95709112  0.32232195    -0.15300
C1960       C  0.85097767  0.95324028  0.30677547     0.05300
C1961       C  0.85107620  0.92124264  0.30676123     0.05200
C1962       C  0.82762968  0.89383706  0.32221129    -0.15300
H1963       H  0.82766894  0.86919157  0.32216501     0.07300
H1964       H  0.82748454  0.98173459  0.32236175     0.07300
C1965       C  0.57283998  0.89717698  0.33783318     0.05300
C1966       C  0.60490823  0.92923631  0.33782212     0.05200
C1967       C  0.60874779  0.95660271  0.32238655    -0.15300
C1968       C  0.58135587  0.95266676  0.30690475     0.05300
C1969       C  0.54935750  0.92054017  0.30681435     0.05200
C1970       C  0.54547030  0.89320560  0.32230816    -0.15300
H1971       H  0.52081726  0.86850575  0.32227747     0.07300
H1972       H  0.63340296  0.98129927  0.32241184     0.07300
C1973       C  0.82262758  0.92226074  0.72909132     0.89500
C1974       C  0.83603337  0.95686829  0.71493639    -0.50800
C1975       C  0.87166499  0.97487402  0.71181034     0.12400
C1976       C  0.89053881  0.95663737  0.72318497     0.23300
C1977       C  0.83641925  0.90164134  0.71458501    -0.51500
C1978       C  0.87207218  0.91969408  0.71148984     0.12500
C1979       C  0.84306267  0.93236507  0.75341331    -0.51000
C1980       C  0.87837369  0.95031440  0.75042607     0.13100
H1981       H  0.81901183  0.96630225  0.70810152     0.17600
H1982       H  0.91951548  0.97133139  0.72077279     0.03300
H1983       H  0.81965716  0.87525048  0.70754032     0.17900
H1984       H  0.83063617  0.92615044  0.77156935     0.17700
C1985       C  0.58036405  0.68053630  0.72906561     0.89500
C1986       C  0.60137512  0.66691193  0.71488313    -0.50800
C1987       C  0.58357953  0.63129060  0.71182203     0.12400
C1988       C  0.54649242  0.61264219  0.72327098     0.23300
C1989       C  0.54589210  0.66685688  0.71463604    -0.51500
C1990       C  0.52811145  0.63121193  0.71159949     0.08300
C1991       C  0.57004978  0.66022624  0.75342194    -0.51000
C1992       C  0.55250411  0.62492429  0.75049142     0.13100
H1993       H  0.62784364  0.68378177  0.70800040     0.17600
H1994       H  0.53207026  0.58367217  0.72090766     0.03300
H1995       H  0.53634842  0.68368686  0.70760601     0.17900
H1996       H  0.57639235  0.67272575  0.77155773     0.17700
C1997       C  0.58087524  0.92278265  0.72922184     0.89500
C1998       C  0.54632216  0.90179290  0.71491363    -0.50800
C1999       C  0.52849789  0.91957922  0.71175586     0.12400
C2000       C  0.54684580  0.95662525  0.72324800     0.23300
C2001       C  0.60176577  0.95725332  0.71483995    -0.51500
C2002       C  0.58389132  0.97501146  0.71170826     0.12500
C2003       C  0.57068343  0.93306904  0.75352504    -0.51000
C2004       C  0.55292482  0.95060181  0.75049858     0.13100
H2005       H  0.53678581  0.87535343  0.70800928     0.17600
H2006       H  0.53229870  0.97103747  0.72080924     0.03300
H2007       H  0.62819972  0.96679966  0.70789641     0.17900
H2008       H  0.57673060  0.92673632  0.77169340     0.17700
O2009       O  0.54329997  0.50830729  0.87979901    -0.78800
C2010       C  0.93322752  0.98172668  0.81481320     1.00500
O2011       O  0.93210875  0.95894577  0.82956321    -0.67900
O2012       O  0.98954715  0.95966866  0.81989109    -0.71500
Al2013     Al  0.96931849  0.96212009  0.85004642     1.49000
C2014       C  0.52161311  0.97441026  0.81476895     0.95800
O2015       O  0.54368526  0.55284916  0.81994010    -0.77800
O2016       O  0.99500444  0.55767721  0.87992536    -0.71300
Al2017     Al  0.54127004  0.53012287  0.85004320     1.90100
O2018       O  0.00724163  0.57122587  0.82964414    -0.70400
O2019       O  0.93390156  0.50175919  0.87006628    -0.70200
O2020       O  0.95056065  0.51377946  0.81992479    -0.75900
O2021       O  0.94558154  0.96015767  0.87987526    -0.74100
O2022       O  0.99461610  0.50874478  0.85047994    -1.10200
O2023       O  0.50155279  0.95502968  0.87001331    -0.69400
C2024       C  0.52789358  0.97557698  0.88297958     1.01300
C2025       C  0.52893796  0.57016480  0.81487591     0.97700
Al2026     Al  0.97323002  0.53399213  0.85009439     1.55600
O2027       O  0.54444462  0.49618021  0.82947037    -0.74100
C2028       C  0.92820884  0.97551497  0.88307964     1.01900
C2029       C  0.52774459  0.57501285  0.88314578     0.96700
O2030       O  0.54833735  0.56935184  0.87012685    -0.79400
C2031       C  0.74153897  0.50327106  0.58206364     0.89500
C2032       C  0.77619815  0.51683730  0.59622783    -0.50800
C2033       C  0.79409272  0.55245449  0.59932784     0.12400
C2034       C  0.77570976  0.57115780  0.58791442     0.23300
C2035       C  0.72081116  0.51697755  0.59654136    -0.51500
C2036       C  0.73876648  0.55262138  0.59960469     0.12500
C2037       C  0.75155049  0.52362274  0.55772519    -0.51000
C2038       C  0.76937029  0.55891964  0.56068646     0.13100
H2039       H  0.78574457  0.99993448  0.60309106     0.17600
H2040       H  0.79031310  0.60012379  0.59030322     0.03300
H2041       H  0.69443419  0.00016759  0.60360266     0.17900
H2042       H  0.74531319  0.51115464  0.53957819     0.17700
C2043       C  0.99973880  0.76088801  0.58197682     0.89500
C2044       C  0.98627337  0.78202284  0.59617970    -0.50800
C2045       C  0.95065230  0.76431910  0.59935577     0.12400
C2046       C  0.93184318  0.72719172  0.58799447     0.23300
C2047       C  0.98609293  0.72651112  0.59647789    -0.51500
C2048       C  0.95044808  0.70882347  0.59963471     0.12500
C2049       C  0.97922201  0.75047329  0.55768724    -0.51000
C2050       C  0.94391714  0.73302598  0.56073316     0.13100
H2051       H  0.50324609  0.80850923  0.60298664     0.17600
H2052       H  0.90287375  0.71284763  0.59045270     0.03300
H2053       H  0.50294620  0.71696748  0.60347519     0.17900
H2054       H  0.99158920  0.75670338  0.53951074     0.17700
C2055       C  0.74193428  0.76151049  0.58215804     0.89500
C2056       C  0.72093685  0.72697067  0.59643986    -0.50800
C2057       C  0.73871717  0.70912544  0.59954169     0.12400
C2058       C  0.77576444  0.72744999  0.58802447     0.23300
C2059       C  0.77645931  0.78235405  0.59652448    -0.51500
C2060       C  0.79421610  0.76447117  0.59960055     0.12500
C2061       C  0.75215000  0.75132386  0.55782565    -0.51000
C2062       C  0.76967183  0.73354894  0.56078964     0.13100
H2063       H  0.69449636  0.71745294  0.60335763     0.17600
H2064       H  0.79017495  0.71289358  0.59041527     0.03300
H2065       H  0.78605114  0.80877343  0.60348894     0.17900
H2066       H  0.74577167  0.75738436  0.53967709     0.17700
O2067       O  0.87651701  0.67553161  0.43137101    -0.78800
C2068       C  0.79313766  0.70223090  0.49637174     1.00500
O2069       O  0.81487529  0.72500790  0.48164525    -0.67900
O2070       O  0.87153663  0.72418974  0.49133328    -0.71500
Al2071     Al  0.84888607  0.72178628  0.46116554     1.49000
C2072       C  0.88883238  0.70942792  0.49644005     0.95800
O2073       O  0.83239175  0.63108677  0.49126047    -0.77800
O2074       O  0.77885144  0.62616752  0.43127373    -0.71300
Al2075     Al  0.85269932  0.65376196  0.46114830     1.90100
O2076       O  0.77754074  0.61273499  0.48159412    -0.70400
O2077       O  0.77379507  0.68216172  0.44106985    -0.70200
O2078       O  0.77834448  0.67018289  0.49123394    -0.75900
O2079       O  0.82714580  0.72379877  0.43133915    -0.74100
O2080       O  0.82746280  0.67516015  0.46071175    -1.10200
O2081       O  0.88821129  0.72883068  0.44119030    -0.69400
C2082       C  0.89392340  0.70825350  0.42820282     1.01300
C2083       C  0.80031707  0.61378640  0.49634237     0.97700
Al2084     Al  0.78080495  0.64993058  0.46108787     1.55600
O2085       O  0.88989361  0.68771812  0.48168804    -0.74100
C2086       C  0.79440851  0.70843379  0.42809619     1.01900
C2087       C  0.79422191  0.60880622  0.42808530     0.96700
O2088       O  0.82048009  0.61449571  0.44110930    -0.79400
C2089       C  0.93938891  0.86567621  0.67088826     0.05300
C2090       C  0.90738321  0.86579805  0.67084065     0.05200
C2091       C  0.87996448  0.84233171  0.65537950    -0.15300
C2092       C  0.88377405  0.81877825  0.63993369     0.05300
C2093       C  0.91583975  0.81877519  0.63988777     0.05200
C2094       C  0.94324830  0.84220697  0.65537712    -0.15300
H2095       H  0.96790067  0.84214806  0.65538148     0.07300
H2096       H  0.85530353  0.84237225  0.65538928     0.07300
C2097       C  0.63789527  0.59637517  0.67126696     0.05300
C2098       C  0.63795797  0.56436167  0.67121036     0.05200
C2099       C  0.66147552  0.56056211  0.65571766    -0.15300
C2100       C  0.68488548  0.58795771  0.64024567     0.05300
C2101       C  0.68475907  0.61994382  0.64024182     0.05200
C2102       C  0.66128453  0.62377145  0.65577605    -0.15300
H2103       H  0.66120040  0.64839530  0.65579887     0.07300
H2104       H  0.66154584  0.53593265  0.65568962     0.07300
C2105       C  0.90656205  0.56406487  0.67120066     0.05300
C2106       C  0.93867470  0.59607570  0.67117319     0.05200
C2107       C  0.94258814  0.62346326  0.65572981    -0.15300
C2108       C  0.91522254  0.61959359  0.64024938     0.05300
C2109       C  0.88317548  0.58751431  0.64017397     0.05200
C2110       C  0.87921456  0.56016124  0.65568105    -0.15300
H2111       H  0.85452667  0.53549554  0.65565673     0.07300
H2112       H  0.96728073  0.64812047  0.65574568     0.07300
C2113       C  0.77992303  0.72134796  0.53944315    -0.10300
C2114       C  0.78594157  0.71275266  0.51970169    -0.11900
C2115       C  0.82742359  0.77972338  0.61260325    -0.10300
C2116       C  0.85428166  0.79574612  0.62438081    -0.11900
C2117       C  0.72341115  0.67599888  0.61259896    -0.10300
C2118       C  0.70752769  0.64928482  0.62451272    -0.11900
C2119       C  0.90661473  0.71665775  0.51974731    -0.10300
C2120       C  0.92134386  0.72271933  0.53944622    -0.11900
C2121       C  0.93292169  0.77979107  0.61233540    -0.10300
C2122       C  0.92222526  0.79584129  0.62419952    -0.11900
C2123       C  0.92169008  0.64900240  0.62463760    -0.10300
C2124       C  0.93251634  0.67575758  0.61277286    -0.11900
C2125       C  0.78132980  0.58135032  0.53934645    -0.10300
C2126       C  0.78978531  0.59600106  0.51962725    -0.11900
C2127       C  0.82723038  0.57025653  0.61240506    -0.10300
C2128       C  0.85390527  0.58102698  0.62438110    -0.11900
C2129       C  0.70782165  0.58154858  0.62457173    -0.10300
C2130       C  0.72368317  0.57063791  0.61270122    -0.11900
C2131       C  0.54072768  0.96095651  0.77178985    -0.10300
C2132       C  0.53211964  0.96709670  0.79148027    -0.11900
C2133       C  0.99539229  0.90429451  0.69863692    -0.10300
C2134       C  0.96870644  0.88842806  0.68666365    -0.11900
C2135       C  0.59912823  0.50813143  0.69864058    -0.10300
C2136       C  0.61505104  0.53492527  0.68681654    -0.11900
C2137       C  0.53614178  0.58792415  0.79158132    -0.10300
C2138       C  0.54219638  0.60253620  0.77185186    -0.11900
C2139       C  0.99493412  0.61325630  0.69856417    -0.10300
C2140       C  0.96810887  0.60246039  0.68675666    -0.11900
C2141       C  0.59893304  0.61344135  0.69885621    -0.10300
C2142       C  0.61495822  0.60272769  0.68697969    -0.11900
C2143       C  0.90086221  0.96256029  0.77175504    -0.10300
C2144       C  0.91550598  0.97119490  0.79148489    -0.11900
C2145       C  0.88935728  0.50804337  0.69880802    -0.10300
C2146       C  0.90007158  0.53474922  0.68691171    -0.11900
C2147       C  0.90098856  0.88877663  0.68647878    -0.10300
C2148       C  0.89012651  0.90467437  0.69835781    -0.11900
C2149       C  0.95235235  0.54620710  0.18632596    -0.10300
C2150       C  0.94622459  0.55476165  0.20603884    -0.11900
C2151       C  0.99351654  0.61308821  0.27918739    -0.10300
C2152       C  0.52035661  0.62904490  0.29099207    -0.11900
C2153       C  0.88962173  0.50930018  0.27914118    -0.10300
C2154       C  0.87374992  0.98257321  0.29104911    -0.11900
C2155       C  0.94802563  0.91480475  0.20599725    -0.10300
C2156       C  0.95662241  0.92954237  0.18630990    -0.11900
C2157       C  0.99337061  0.90325273  0.27907330    -0.10300
C2158       C  0.52005416  0.91400340  0.29103797    -0.11900
C2159       C  0.87404255  0.91485115  0.29110184    -0.10300
C2160       C  0.88994115  0.90397371  0.27923746    -0.11900
C2161       C  0.57309442  0.55001876  0.18632444    -0.10300
C2162       C  0.58767734  0.55593899  0.20607311    -0.11900
C2163       C  0.59852182  0.50881713  0.27946840    -0.10300
C2164       C  0.58774601  0.98206213  0.29130777    -0.11900
C2165       C  0.59881947  0.61280148  0.27899916    -0.10300
C2166       C  0.58816599  0.62889441  0.29085548    -0.11900
C2167       C  0.70870485  0.93720516  0.56685817    -0.10300
C2168       C  0.72262259  0.96542090  0.57700926    -0.11900
C2169       C  0.70878894  0.79438270  0.56686624    -0.10300
C2170       C  0.72298270  0.78040596  0.57707290    -0.11900
C2171       C  0.53758987  0.77982115  0.57684622    -0.10300
C2172       C  0.56581621  0.79413799  0.56670097    -0.11900
C2173       C  0.76556497  0.55172922  0.40079793    -0.10300
C2174       C  0.77981926  0.57993759  0.41096275    -0.11900
C2175       C  0.70274088  0.92114407  0.45819168    -0.10300
C2176       C  0.70870576  0.93579129  0.43847449    -0.11900
C2177       C  0.76527411  0.94687477  0.36543829    -0.10300
C2178       C  0.78124523  0.93610660  0.35354905    -0.11900
C2179       C  0.63436702  0.93568996  0.35341091    -0.10300
C2180       C  0.66119919  0.94652658  0.36522205    -0.11900
C2181       C  0.76607424  0.73711340  0.40076178    -0.10300
C2182       C  0.77998589  0.72284823  0.41095933    -0.11900
C2183       C  0.70733651  0.79439335  0.43836417    -0.10300
C2184       C  0.69886897  0.80054473  0.45810701    -0.11900
C2185       C  0.66157285  0.73746919  0.36524303    -0.10300
C2186       C  0.63486686  0.72155756  0.35329144    -0.11900
C2187       C  0.78119263  0.86819945  0.35329958    -0.10300
C2188       C  0.76527678  0.84138492  0.36510424    -0.11900
C2189       C  0.92285980  0.72268699  0.41114651    -0.10300
C2190       C  0.95108391  0.73660081  0.40100161    -0.11900
C2191       C  0.58202534  0.80436645  0.45813135    -0.10300
C2192       C  0.56729387  0.79577744  0.43843363    -0.11900
C2193       C  0.55568145  0.84118882  0.36545659    -0.10300
C2194       C  0.56639653  0.86788313  0.35354828    -0.11900
C2195       C  0.56713978  0.72188396  0.35321420    -0.10300
C2196       C  0.55628512  0.73776081  0.36512276    -0.11900
C2197       C  0.87463611  0.62741368  0.23343491    -0.10300
C2198       C  0.88895892  0.61354313  0.24360517    -0.11900
C2199       C  0.87463263  0.77045036  0.23336301    -0.10300
C2200       C  0.88864807  0.79870128  0.24347057    -0.11900
C2201       C  0.70367498  0.61299962  0.24376731    -0.10300
C2202       C  0.73186088  0.62730952  0.23357536    -0.11900
C2203       C  0.93252775  0.57069517  0.06758238    -0.10300
C2204       C  0.94637791  0.55633943  0.07773242    -0.11900
C2205       C  0.86472987  0.63370979  0.12476761    -0.10300
C2206       C  0.87349235  0.62778624  0.10506249    -0.11900
C2207       C  0.94773885  0.70164592  0.01989147    -0.10300
C2208       C  0.93177056  0.67488886  0.03174998    -0.11900
C2209       C  0.94620817  0.91320486  0.07778474    -0.10300
C2210       C  0.93200106  0.88495891  0.06767347    -0.11900
C2211       C  0.87496500  0.76887855  0.10515664    -0.10300
C2212       C  0.86870490  0.75415690  0.12485161    -0.11900
C2213       C  0.82812335  0.77967272  0.03176310    -0.10300
C2214       C  0.80137659  0.76881140  0.01985920    -0.11900
C2215       C  0.93223700  0.78044158  0.03215419    -0.10300
C2216       C  0.94813736  0.76969174  0.02016041    -0.11900
C2217       C  0.58903405  0.55630037  0.07747670    -0.10300
C2218       C  0.61720532  0.57020829  0.06725736    -0.11900
C2219       C  0.73312583  0.62881789  0.10505906    -0.10300
C2220       C  0.74771956  0.63732569  0.12481256    -0.11900
C2221       C  0.72239353  0.67442068  0.03183558    -0.10300
C2222       C  0.73327685  0.70112573  0.01990799    -0.11900
C2223       C  0.82794891  0.57089967  0.03220829    -0.10300
C2224       C  0.80117689  0.55479167  0.02036977    -0.11900
C2225       C  0.73316059  0.55455966  0.02016073    -0.10300
C2226       C  0.72227523  0.57055411  0.03190718    -0.11900
C2227       C  0.78476973  0.90322812  0.73417208    -0.10300
C2228       C  0.75656337  0.88924160  0.74434110    -0.11900
C2229       C  0.61369507  0.74658540  0.74425249    -0.10300
C2230       C  0.59938057  0.71838535  0.73408868    -0.11900
C2231       C  0.59971600  0.90377910  0.73432789    -0.10300
C2232       C  0.61362044  0.88944752  0.74444347    -0.11900
C2233       C  0.54218101  0.60384249  0.90028856    -0.10300
C2234       C  0.55604707  0.63204542  0.91044877    -0.11900
C2235       C  0.61482909  0.74790297  0.87266886    -0.10300
C2236       C  0.62350578  0.76254414  0.85295142    -0.11900
C2237       C  0.66054112  0.73707697  0.94567504    -0.10300
C2238       C  0.68729694  0.74779841  0.95754246    -0.11900
C2239       C  0.54060818  0.74795512  0.95767707    -0.10300
C2240       C  0.55662939  0.73712797  0.94590099    -0.11900
C2241       C  0.89933511  0.96111663  0.90019839    -0.10300
C2242       C  0.87113458  0.94685577  0.91038350    -0.11900
C2243       C  0.74043128  0.88339959  0.85304250    -0.10300
C2244       C  0.75505888  0.88956649  0.87278535    -0.11900
C2245       C  0.76607646  0.84245242  0.94598672    -0.10300
C2246       C  0.75522529  0.81563136  0.95777476    -0.11900
C2247       C  0.76618568  0.94627993  0.94597338    -0.10300
C2248       C  0.75534140  0.96212968  0.95793280    -0.11900
C2249       C  0.55661145  0.94711290  0.91011938    -0.10300
C2250       C  0.54235958  0.96109392  0.90000880    -0.11900
C2251       C  0.61967887  0.87929021  0.85295325    -0.10300
C2252       C  0.61356030  0.88791869  0.87264057    -0.11900
C2253       C  0.55636524  0.84237762  0.94552665    -0.10300
C2254       C  0.54038417  0.81569527  0.95744934    -0.11900
C2255       C  0.66049206  0.94575589  0.94605703    -0.10300
C2256       C  0.68720760  0.96163609  0.95799335    -0.11900
loop_ 
_geom_bond_atom_site_label_1 
_geom_bond_atom_site_label_2 
_geom_bond_distance 
_geom_bond_site_symmetry_2 
_ccdc_geom_bond_type 
C1            C2   1.534       .  S
C1            C7   1.525       .  S
C1            C5   1.534       .  S
C1          C557   1.468       .  S
C2            H9   1.086       .  S
C2            C3   1.368       .  D
C3            C4   1.541       .  S
C3          C561   1.447       .  S
C4            C8   1.540       .  S
C4            C6   1.542       .  S
C4           H10   1.111       .  S
C5           H11   1.086       .  S
C5            C6   1.368       .  D
C6          C563   1.447       .  S
C7           H12   1.087       .  S
C7            C8   1.355       .  D
C8          C560   1.434       .  S
C13          C14   1.534       .  S
C13          C19   1.525       .  S
C13          C17   1.534       .  S
C13         C550   1.468       .  S
C14          H21   1.086       .  S
C14          C15   1.368       .  D
C15          C16   1.542       .  S
C15         C555   1.447       .  S
C16          C20   1.540       .  S
C16          C18   1.543       .  S
C16          H22   1.111       .  S
C17          H23   1.086       .  S
C17          C18   1.368       .  D
C18         C553   1.447       .  S
C19          H24   1.087       .  S
C19          C20   1.355       .  D
C20         C552   1.435       .  S
C25          C26   1.534       .  S
C25          C31   1.525       .  S
C25          C29   1.534       .  S
C25         C542   1.468       .  S
C26          H33   1.086       .  S
C26          C27   1.368       .  D
C27          C28   1.542       .  S
C27         C545   1.446       .  S
C28          C32   1.540       .  S
C28          C30   1.543       .  S
C28          H34   1.111       .  S
C29          H35   1.086       .  S
C29          C30   1.368       .  D
C30         C548   1.447       .  S
C31          H36   1.087       .  S
C31          C32   1.355       .  D
C32         C543   1.434       .  S
O37          C52   1.260       .  A
O37         Al45   1.896       .  S
C38          O48   1.254       .  A
C38          O39   1.262       .  A
C38         C544   1.429       .  S
O39         Al41   1.921       .  S
O40          C42   1.254       .  A
O40         Al41   1.882       .  S
Al41         O49   1.895       .  S
Al41         O51   1.927       .  S
Al41         O50   1.779       .  S
C42          O55   1.262       .  A
C42         C559   1.429       .  S
O43          C53   1.253       .  A
O43         Al45   1.882       .  S
O44          C57   1.260       .  A
O44         Al54   1.895       .  S
Al45         O58   1.926       .  S
Al45         O55   1.921       .  S
Al45         O50   1.779       .  S
O46          C53   1.262       .  A
O46         Al54   1.921       .  S
O47          C56   1.265       .  A
O47         Al54   1.927       .  S
O48         Al54   1.883       .  S
O49          C56   1.260       .  A
O50         Al54   1.779       .  S
O51          C52   1.265       .  A
C52         C540   1.436       .  S
C53         C551   1.429       .  S
C56         C537   1.435       .  S
C57          O58   1.265       .  A
C57         C536   1.436       .  S
C59         C556   1.448       .  S
C59          C60   1.411       .  A
C59         C628   1.403       .  A
C60         C564   1.448       .  S
C60         C625   1.403       .  A
C61          C62   1.403   1_556  A
C61         C624   1.403   1_545  A
C61          H66   1.086       .  S
C62         C533   1.448       .  S
C62          C63   1.411       .  A
C63         C532   1.448       .  S
C63          C64   1.404   1_554  A
C64         C623   1.403   1_545  A
C64          H65   1.086       .  S
C67          C68   1.534       .  S
C67          C73   1.525       .  S
C67          C71   1.534       .  S
C67         C526   1.468       .  S
C68          H75   1.086       .  S
C68          C69   1.368       .  D
C69          C70   1.542       .  S
C69         C529   1.447       .  S
C70          C74   1.540       .  S
C70          C72   1.543       .  S
C70          H76   1.111       .  S
C71          H77   1.086       .  S
C71          C72   1.368       .  D
C72         C534   1.447       .  S
C73          H78   1.087       .  S
C73          C74   1.355       .  D
C74         C527   1.434       .  S
C79          C80   1.534       .  S
C79          C85   1.525       .  S
C79          C83   1.534       .  S
C79         C518   1.468       .  S
C80          H87   1.086       .  S
C80          C81   1.368       .  D
C81          C82   1.542       .  S
C81         C523   1.447       .  S
C82          C86   1.540       .  S
C82          C84   1.542       .  S
C82          H88   1.111       .  S
C83          H89   1.086       .  S
C83          C84   1.368       .  D
C84         C521   1.447       .  S
C85          H90   1.087       .  S
C85          C86   1.355       .  D
C86         C519   1.434       .  S
C91          C92   1.534       .  S
C91          C97   1.525       .  S
C91          C95   1.534       .  S
C91         C511   1.468       .  S
C92          H99   1.086       .  S
C92          C93   1.368       .  D
C93          C94   1.542       .  S
C93         C531   1.446       .  S
C94          C98   1.540       .  S
C94          C96   1.543       .  S
C94         H100   1.111       .  S
C95         H101   1.086       .  S
C95          C96   1.368       .  D
C96         C516   1.447       .  S
C97         H102   1.087       .  S
C97          C98   1.355       .  D
C98         C514   1.434       .  S
O103        C118   1.260       .  A
O103       Al111   1.895       .  S
C104        O114   1.253       .  A
C104        O105   1.261       .  A
C104        C528   1.429       .  S
O105       Al107   1.921       .  S
O106        C108   1.254       .  A
O106       Al107   1.882       .  S
Al107       O115   1.895       .  S
Al107       O117   1.927       .  S
Al107       O116   1.780       .  S
C108        O121   1.262       .  A
C108        C513   1.429       .  S
O109        C119   1.254       .  A
O109       Al111   1.882       .  S
O110        C123   1.260       .  A
O110       Al120   1.896       .  S
Al111       O124   1.926       .  S
Al111       O121   1.921       .  S
Al111       O116   1.779       .  S
O112        C119   1.262       .  A
O112       Al120   1.921       .  S
O113        C122   1.265       .  A
O113       Al120   1.927       .  S
O114       Al120   1.882       .  S
O115        C122   1.260       .  A
O116       Al120   1.779       .  S
O117        C118   1.265       .  A
C118        C505   1.436       .  S
C119        C520   1.429       .  S
C122        C510   1.435       .  S
C123        O124   1.265       .  A
C123        C507   1.436       .  S
C125        C547   1.448       .  S
C125        C126   1.411       .  A
C125       C1258   1.403   1_455  A
C126        C562   1.448       .  S
C126       C1255   1.404   1_455  A
C127        C128   1.404   1_556  A
C127       C1254   1.404       .  A
C127        H132   1.086       .  S
C128        C524   1.448       .  S
C128        C129   1.411       .  A
C129        C515   1.448       .  S
C129        C130   1.403   1_554  A
C130       C1253   1.403       .  A
C130        H131   1.086       .  S
C133        C546   1.448       .  S
C133        C134   1.411       .  A
C133        C138   1.404       .  A
C134        C554   1.448       .  S
C134        C135   1.403       .  A
C135        C136   1.403   1_556  A
C135        H140   1.086       .  S
C136        C522   1.448       .  S
C136        C137   1.411       .  A
C137        C530   1.448       .  S
C137        C138   1.403   1_554  A
C138        H139   1.086       .  S
C141        C142   1.534       .  S
C141        C145   1.534       .  S
C141       C1275   1.525       .  S
C141        C498   1.468       .  S
C142        H149   1.086       .  S
C142       C1271   1.368       .  D
C143        C144   1.542       .  S
C143       C1270   1.368       .  D
C143        C501   1.447       .  S
C144        C148   1.540       .  S
C144        C146   1.542       .  S
C144        H150   1.111       .  S
C145        H151   1.086       .  S
C145       C1274   1.368       .  D
C146       C1273   1.368       .  D
C146        C504   1.447       .  S
C147       C1269   1.525   1_455  S
C147        H152   1.087   1_455  S
C147        C148   1.355       .  D
C148        C500   1.434       .  S
C153        C154   1.534       .  S
C153        C159   1.525       .  S
C153        C157   1.534       .  S
C153        C489   1.468       .  S
C154        H161   1.086       .  S
C154        C155   1.368       .  D
C155        C156   1.542       .  S
C155        C493   1.447       .  S
C156        C160   1.540       .  S
C156        C158   1.542       .  S
C156        H162   1.111       .  S
C157        H163   1.086       .  S
C157        C158   1.368       .  D
C158        C496   1.447       .  S
C159        H164   1.087       .  S
C159        C160   1.355       .  D
C160        C491   1.434       .  S
C165        C166   1.534       .  S
C165        C169   1.534       .  S
C165        C735   1.525   1_545  S
C165        C481   1.468       .  S
C166        H173   1.086       .  S
C166        C731   1.368   1_545  D
C167        C168   1.542       .  S
C167        C730   1.368       .  D
C167        C485   1.447       .  S
C168        C172   1.540       .  S
C168        C170   1.543       .  S
C168        H174   1.111       .  S
C169        H175   1.086       .  S
C169        C734   1.368   1_545  D
C170        C733   1.368       .  D
C170        C488   1.447       .  S
C171        C729   1.525       .  S
C171        H176   1.087       .  S
C171        C172   1.355       .  D
C172        C484   1.435       .  S
O177        C192   1.260       .  A
O177       Al185   1.895       .  S
C178        O188   1.254       .  A
C178        O179   1.262       .  A
C178        C483   1.429       .  S
O179       Al181   1.921       .  S
O180        C182   1.253       .  A
O180       Al181   1.882       .  S
Al181       O189   1.895       .  S
Al181       O191   1.927       .  S
Al181       O190   1.779       .  S
C182        O195   1.262       .  A
C182        C499   1.429       .  S
O183        C193   1.253       .  A
O183       Al185   1.882       .  S
O184        C197   1.260       .  A
O184       Al194   1.896       .  S
Al185       O198   1.926       .  S
Al185       O195   1.921       .  S
Al185       O190   1.779       .  S
O186        C193   1.262       .  A
O186       Al194   1.921       .  S
O187        C196   1.265       .  A
O187       Al194   1.926       .  S
O188       Al194   1.883       .  S
O189        C196   1.260       .  A
O190       Al194   1.779       .  S
O191        C192   1.265       .  A
C192        C480   1.436       .  S
C193        C492   1.429       .  S
C196        C475   1.436       .  S
C197        O198   1.265       .  A
C197        C477   1.436       .  S
C199        C200   1.534       .  S
C199        C205   1.525       .  S
C199        C203   1.534       .  S
C199        C509   1.468       .  S
C200        H207   1.086       .  S
C200        C201   1.368       .  D
C201        C202   1.542       .  S
C201        C473   1.446       .  S
C202        C206   1.540       .  S
C202        C204   1.543       .  S
C202        H208   1.111       .  S
C203        H209   1.086       .  S
C203        C204   1.368       .  D
C204        C471   1.447       .  S
C205        H210   1.087       .  S
C205        C206   1.355       .  D
C206        C470   1.434       .  S
C211        C212   1.534       .  S
C211        C217   1.525       .  S
C211        C215   1.534       .  S
C211        C508   1.468       .  S
C212        H219   1.086       .  S
C212        C213   1.368       .  D
C213        C214   1.542       .  S
C213        C465   1.447       .  S
C214        C218   1.540       .  S
C214        C216   1.542       .  S
C214        H220   1.111       .  S
C215        H221   1.086       .  S
C215        C216   1.368       .  D
C216        C468   1.447       .  S
C217        H222   1.087       .  S
C217        C218   1.355       .  D
C218        C463   1.435       .  S
C223        C224   1.534       .  S
C223        C229   1.525       .  S
C223        C227   1.534       .  S
C223        C506   1.468       .  S
C224        H231   1.086       .  S
C224        C225   1.368       .  D
C225        C226   1.542       .  S
C225        C461   1.447       .  S
C226        C230   1.540       .  S
C226        C228   1.542       .  S
C226        H232   1.111       .  S
C227        H233   1.086       .  S
C227        C228   1.368       .  D
C228        C459   1.447       .  S
C229        H234   1.087       .  S
C229        C230   1.355       .  D
C230        C458   1.434       .  S
O235        C250   1.260       .  A
O235      Al1371   1.895       .  S
C236        O246   1.254       .  A
C236        O237   1.262       .  A
C236        C464   1.429       .  S
O237       Al239   1.921       .  S
O238        C240   1.253       .  A
O238       Al803   1.882   1_545  S
Al239       O247   1.896       .  S
Al239       O802   1.882       .  S
Al239       O813   1.927       .  S
Al239       O812   1.779       .  S
C240        O253   1.261       .  A
C240        C457   1.429       .  S
O241        C251   1.254       .  A
O241       Al243   1.882       .  S
O242        C255   1.260       .  A
O242       Al816   1.896   1_545  S
Al243       O256   1.926       .  S
Al243      O1363   1.895   1_455  S
Al243      O1381   1.920   1_455  S
Al243      O1376   1.779   1_455  S
O244        C251   1.262       .  A
O244       Al816   1.921   1_545  S
O245        C254   1.265       .  A
O245      Al1380   1.926       .  S
O246      Al1380   1.882       .  S
O247        C254   1.260       .  A
O248       Al803   1.779   1_545  S
O248      Al1371   1.779       .  S
O248      Al1944   1.779   1_545  S
O249        C250   1.265       .  A
O249       Al803   1.927   1_545  S
C250        C512   1.436       .  S
C251        C469   1.429       .  S
Al252       O806   1.896       .  S
Al252       O808   1.921       .  S
Al252      O1373   1.926   1_455  S
Al252      O1374   1.882   1_455  S
Al252      O1940   1.779   1_455  S
O253      Al1371   1.920       .  S
C254        C517   1.436       .  S
C255        O256   1.265       .  A
C255        C525   1.436       .  S
C257        C503   1.448       .  S
C257        C258   1.411       .  A
C257        C262   1.403       .  A
C258        C494   1.448       .  S
C258        C259   1.404       .  A
C259        C260   1.404       .  A
C259        H264   1.086       .  S
C260        C474   1.448       .  S
C260        C261   1.410       .  A
C261        C460   1.448       .  S
C261        C262   1.403       .  A
C262        H263   1.086       .  S
C265        C495   1.448       .  S
C265        C266   1.411       .  A
C265        C270   1.403       .  A
C266        C486   1.448       .  S
C266        C267   1.404       .  A
C267        C268   1.403       .  A
C267        H272   1.086       .  S
C268        C462   1.448       .  S
C268        C269   1.411       .  A
C269        C467   1.448       .  S
C269        C270   1.403       .  A
C270        H271   1.086       .  S
C273        C502   1.448       .  S
C273        C274   1.411       .  A
C273        C278   1.404       .  A
C274        C487   1.448       .  S
C274        C275   1.403       .  A
C275        C276   1.403       .  A
C275        H280   1.086       .  S
C276        C472   1.448       .  S
C276        C277   1.411       .  A
C277        C466   1.448       .  S
C277        C278   1.404       .  A
C278        H279   1.086       .  S
C281        C282   1.534       .  S
C281        C287   1.525       .  S
C281        C285   1.534       .  S
C281        C535   1.468       .  S
C282        H289   1.086       .  S
C282        C283   1.368       .  D
C283        C284   1.542       .  S
C283       C1017   1.447       .  S
C284        C288   1.540       .  S
C284        C286   1.542       .  S
C284        H290   1.111       .  S
C285        H291   1.086       .  S
C285        C286   1.368       .  D
C286        C456   1.447       .  S
C287        H292   1.087       .  S
C287        C288   1.355       .  D
C288        C451   1.434       .  S
C293        C294   1.534       .  S
C293        C299   1.525       .  S
C293        C297   1.534       .  S
C293        C538   1.468       .  S
C294        H301   1.086       .  S
C294        C295   1.368       .  D
C295        C296   1.542       .  S
C295        C449   1.446       .  S
C296        C300   1.540       .  S
C296        C298   1.543       .  S
C296        H302   1.111       .  S
C297        H303   1.086       .  S
C297        C298   1.368       .  D
C298       C1575   1.447   1_455  S
C299        H304   1.087       .  S
C299        C300   1.355       .  D
C300        C446   1.434       .  S
C305        C306   1.534       .  S
C305        C311   1.525       .  S
C305        C309   1.534       .  S
C305        C539   1.468       .  S
C306        H313   1.086       .  S
C306        C307   1.368       .  D
C307        C308   1.542       .  S
C307       C1569   1.447   1_455  S
C308        C312   1.540       .  S
C308        C310   1.542       .  S
C308        H314   1.111       .  S
C309        H315   1.086       .  S
C309        C310   1.368       .  D
C310       C1007   1.447       .  S
C311        H316   1.087       .  S
C311        C312   1.355       .  D
C312        C439   1.434       .  S
O317        C896   1.260   1_545  A
O317       Al325   1.895       .  S
C318        O319   1.262       .  A
C318        O892   1.254       .  A
C318        C452   1.429       .  S
O319       Al321   1.921       .  S
O320       C1450   1.254       .  A
O320       Al321   1.882       .  S
Al321       O329   1.896       .  S
Al321      O1459   1.926       .  S
Al321       O894   1.779       .  S
C322       O1448   1.254   1_455  A
C322        O899   1.262       .  A
C322        C440   1.429       .  S
O323        C333   1.253       .  A
O323       Al325   1.882       .  S
O324       C1465   1.260       .  A
O324       Al334   1.895       .  S
Al325       O338   1.926       .  S
Al325       O335   1.921   1_545  S
Al325      O1458   1.779   1_455  S
O326       C1461   1.262       .  A
O326       Al334   1.921       .  S
O327        C900   1.265   1_545  A
O327       Al334   1.926       .  S
O328        C882   1.254   1_545  A
O328       Al334   1.882       .  S
O329        C336   1.260       .  A
O330       Al334   1.779       .  S
O330       Al885   1.779   1_545  S
O330      Al1453   1.779       .  S
O331        C332   1.265       .  A
O331      Al1449   1.926   1_455  S
C332        O881   1.260       .  A
C332        C558   1.436       .  S
C333       O1454   1.262       .  A
C333        C445   1.429       .  S
O335        C886   1.262       .  A
C336        O891   1.265       .  A
C336        C549   1.436       .  S
C337        O338   1.265       .  A
C337       O1452   1.260   1_455  A
C337        C541   1.435       .  S
C339        C340   1.534       .  S
C339        C345   1.525       .  S
C339        C343   1.534       .  S
C339       C1040   1.468   1_545  S
C340        H911   1.086   1_545  S
C340        C341   1.368       .  D
C341        C342   1.542       .  S
C341        C435   1.447       .  S
C342        C346   1.540       .  S
C342        C344   1.542       .  S
C342        H348   1.111       .  S
C343        H913   1.086       .  S
C343        C344   1.368       .  D
C344        C438   1.447       .  S
C345        H350   1.087       .  S
C345        C346   1.355       .  D
C346        C433   1.434       .  S
H347        C904   1.086       .  S
H349        C907   1.086       .  S
C351        C352   1.534       .  S
C351        C357   1.525       .  S
C351        C355   1.534       .  S
C351       C1607   1.468       .  S
C352       H1487   1.086       .  S
C352        C353   1.368       .  D
C353        C354   1.542       .  S
C353        C429   1.446       .  S
C354        C358   1.540       .  S
C354        C356   1.543       .  S
C354        H360   1.111       .  S
C355       H1489   1.086       .  S
C355        C356   1.368       .  D
C356        C432   1.447       .  S
C357        H362   1.087       .  S
C357        C358   1.355       .  D
C358        C428   1.434       .  S
H359       C1480   1.086   1_455  S
H361       C1483   1.086   1_455  S
C363        C364   1.534       .  S
C363        C369   1.525       .  S
C363        C367   1.534       .  S
C363        C478   1.468       .  S
C364        H371   1.086       .  S
C364        C365   1.368       .  D
C365        C366   1.542       .  S
C365        C425   1.447       .  S
C366        C370   1.540       .  S
C366        C368   1.543       .  S
C366        H372   1.111       .  S
C367        H373   1.086       .  S
C367        C368   1.368       .  D
C368        C423   1.447       .  S
C369        H374   1.087       .  S
C369        C370   1.355       .  D
C370        C421   1.434       .  S
O375        C390   1.260       .  A
O375       Al383   1.895       .  S
C376        O386   1.254       .  A
C376        O377   1.262       .  A
C376        C422   1.429       .  S
O377       Al379   1.921       .  S
O378        C380   1.254       .  A
O378       Al379   1.882       .  S
Al379       O387   1.896       .  S
Al379       O389   1.927       .  S
Al379       O388   1.779       .  S
C380        O393   1.262       .  A
C380        C427   1.429       .  S
O381        C391   1.253       .  A
O381       Al383   1.881       .  S
O382        C395   1.260       .  A
O382       Al392   1.896       .  S
Al383       O396   1.926       .  S
Al383       O393   1.921       .  S
Al383       O388   1.779       .  S
O384        C391   1.262       .  A
O384       Al392   1.921       .  S
O385        C394   1.265       .  A
O385       Al392   1.927       .  S
O386       Al392   1.882       .  S
O387        C394   1.260       .  A
O388       Al392   1.779       .  S
O389        C390   1.265       .  A
C390        C497   1.436       .  S
C391        C434   1.429       .  S
C394        C490   1.436       .  S
C395        O396   1.265       .  A
C395        C482   1.436       .  S
C397        C442   1.448       .  S
C397        C398   1.411       .  A
C397        C402   1.403       .  A
C398        C455   1.448       .  S
C398        C399   1.403       .  A
C399        C400   1.403       .  A
C399        H404   1.086       .  S
C400        C424   1.448       .  S
C400        C401   1.411       .  A
C401        C430   1.448       .  S
C401        C402   1.404       .  A
C402        H403   1.086       .  S
C405        C450   1.448       .  S
C405        C406   1.410       .  A
C405        C410   1.404       .  A
C406        C444   1.448       .  S
C406        C407   1.403       .  A
C407        C408   1.403       .  A
C407        H412   1.086       .  S
C408        C437   1.448       .  S
C408        C409   1.411       .  A
C409        C426   1.448       .  S
C409        C410   1.404       .  A
C410        H411   1.086       .  S
C413        C454   1.448       .  S
C413        C414   1.411       .  A
C413        C418   1.404       .  A
C414        C448   1.448       .  S
C414        C415   1.403       .  A
C415        C416   1.403       .  A
C415        H420   1.086       .  S
C416        C431   1.448       .  S
C416        C417   1.411       .  A
C417        C436   1.448       .  S
C417        C418   1.404       .  A
C418        H419   1.086       .  S
C421        C422   1.202       .  T
C423        C424   1.209       .  T
C425        C426   1.209       .  T
C427        C428   1.202       .  T
C429        C430   1.209       .  T
C431        C432   1.209       .  T
C433        C434   1.202       .  T
C435        C436   1.209       .  T
C437        C438   1.209       .  T
C439        C440   1.202       .  T
C441       C1435   1.447       .  S
C441        C442   1.209       .  T
C443        C874   1.447   1_545  S
C443        C444   1.209       .  T
C445        C446   1.202       .  T
C447       C1426   1.447       .  S
C447        C448   1.209       .  T
C449        C450   1.209       .  T
C451        C452   1.202       .  T
C453        C847   1.447   1_545  S
C453        C454   1.209       .  T
C455        C456   1.209       .  T
C457        C458   1.202       .  T
C459       C1588   1.209       .  T
C460       C1587   1.209   1_455  T
C461       C1026   1.209   1_545  T
C462       C1025   1.209       .  T
C463        C464   1.202       .  T
C465       C1594   1.209       .  T
C466       C1593   1.209   1_455  T
C467        C468   1.209       .  T
C469        C470   1.202       .  T
C471       C1036   1.209   1_545  T
C472       C1035   1.209       .  T
C473        C474   1.209       .  T
C475        C476   1.206       .  T
C476        C903   1.468       .  S
C477        C478   1.207       .  T
C479       C1479   1.468   1_455  S
C479        C480   1.206       .  T
C481        C482   1.206       .  T
C483        C484   1.203       .  T
C485        C486   1.209       .  T
C487        C488   1.209       .  T
C489        C490   1.207       .  T
C491        C492   1.202       .  T
C493        C494   1.209       .  T
C495        C496   1.209       .  T
C497        C498   1.206       .  T
C499        C500   1.202       .  T
C501        C502   1.209       .  T
C503        C504   1.209       .  T
C505        C506   1.206       .  T
C507        C508   1.207       .  T
C509        C510   1.206       .  T
C511        C512   1.206       .  T
C513        C514   1.202       .  T
C515        C516   1.209       .  T
C517        C518   1.206       .  T
C519        C520   1.202       .  T
C521        C522   1.209       .  T
C523        C524   1.209       .  T
C525        C526   1.206       .  T
C527        C528   1.202       .  T
C529        C530   1.209       .  T
C531        C532   1.209       .  T
C533        C534   1.209       .  T
C535        C536   1.206       .  T
C537        C538   1.206       .  T
C539        C540   1.207       .  T
C541        C542   1.206       .  T
C543        C544   1.202       .  T
C545        C546   1.209       .  T
C547        C548   1.209       .  T
C549        C550   1.207       .  T
C551        C552   1.202       .  T
C553        C554   1.209       .  T
C555        C556   1.209       .  T
C557        C558   1.206       .  T
C559        C560   1.202       .  T
C561        C562   1.209       .  T
C563        C564   1.209       .  T
C565        C566   1.534       .  S
C565        C571   1.525       .  S
C565        C569   1.534       .  S
C565       C1121   1.468       .  S
C566        H573   1.086       .  S
C566        C567   1.368       .  D
C567        C568   1.541       .  S
C567       C1125   1.447       .  S
C568        C572   1.540       .  S
C568        C570   1.542       .  S
C568        H574   1.111       .  S
C569        H575   1.086       .  S
C569        C570   1.368       .  D
C570       C1127   1.447       .  S
C571        H576   1.087       .  S
C571        C572   1.355       .  D
C572       C1124   1.434       .  S
C577        C578   1.534       .  S
C577        C583   1.525       .  S
C577        C581   1.534       .  S
C577       C1114   1.468       .  S
C578        H585   1.086       .  S
C578        C579   1.368       .  D
C579        C580   1.542       .  S
C579       C1119   1.447       .  S
C580        C584   1.540       .  S
C580        C582   1.542       .  S
C580        H586   1.111       .  S
C581        H587   1.086       .  S
C581        C582   1.368       .  D
C582       C1117   1.447       .  S
C583        H588   1.087       .  S
C583        C584   1.355       .  D
C584       C1116   1.434       .  S
C589        C590   1.534       .  S
C589        C595   1.525       .  S
C589        C593   1.534       .  S
C589       C1106   1.468       .  S
C590        H597   1.086       .  S
C590        C591   1.368       .  D
C591        C592   1.542       .  S
C591       C1109   1.446       .  S
C592        C596   1.540       .  S
C592        C594   1.543       .  S
C592        H598   1.111       .  S
C593        H599   1.086       .  S
C593        C594   1.368       .  D
C594       C1112   1.447       .  S
C595        H600   1.087       .  S
C595        C596   1.355       .  D
C596       C1107   1.434       .  S
O601        C616   1.260       .  A
O601       Al609   1.896       .  S
C602        O612   1.254       .  A
C602        O603   1.261       .  A
C602       C1108   1.429       .  S
O603       Al605   1.921       .  S
O604        C606   1.254       .  A
O604       Al605   1.882       .  S
Al605       O613   1.895       .  S
Al605       O615   1.927       .  S
Al605       O614   1.779       .  S
C606        O619   1.262       .  A
C606       C1123   1.429       .  S
O607        C617   1.253       .  A
O607       Al609   1.882       .  S
O608        C621   1.260       .  A
O608       Al618   1.895       .  S
Al609       O622   1.926       .  S
Al609       O619   1.921       .  S
Al609       O614   1.779       .  S
O610        C617   1.262       .  A
O610       Al618   1.921       .  S
O611        C620   1.265       .  A
O611       Al618   1.927       .  S
O612       Al618   1.883       .  S
O613        C620   1.260       .  A
O614       Al618   1.779       .  S
O615        C616   1.265       .  A
C616       C1104   1.436       .  S
C617       C1115   1.429       .  S
C620       C1101   1.435       .  S
C621        O622   1.265       .  A
C621       C1100   1.436       .  S
C623       C1120   1.448       .  S
C623        C624   1.411       .  A
C624       C1128   1.448       .  S
C625        C626   1.403   1_556  A
C625        H630   1.086       .  S
C626       C1097   1.448       .  S
C626        C627   1.411       .  A
C627       C1096   1.448       .  S
C627        C628   1.404   1_554  A
C628        H629   1.086       .  S
C631        C632   1.534       .  S
C631        C637   1.525       .  S
C631        C635   1.534       .  S
C631       C1090   1.468       .  S
C632        H639   1.086       .  S
C632        C633   1.368       .  D
C633        C634   1.542       .  S
C633       C1093   1.447       .  S
C634        C638   1.540       .  S
C634        C636   1.543       .  S
C634        H640   1.111       .  S
C635        H641   1.086       .  S
C635        C636   1.368       .  D
C636       C1098   1.447       .  S
C637        H642   1.087       .  S
C637        C638   1.355       .  D
C638       C1091   1.434       .  S
C643        C644   1.534       .  S
C643        C649   1.525       .  S
C643        C647   1.534       .  S
C643       C1082   1.468       .  S
C644        H651   1.086       .  S
C644        C645   1.368       .  D
C645        C646   1.542       .  S
C645       C1087   1.447       .  S
C646        C650   1.540       .  S
C646        C648   1.542       .  S
C646        H652   1.111       .  S
C647        H653   1.086       .  S
C647        C648   1.368       .  D
C648       C1085   1.447       .  S
C649        H654   1.087       .  S
C649        C650   1.355       .  D
C650       C1083   1.434       .  S
C655        C656   1.534       .  S
C655        C661   1.525       .  S
C655        C659   1.534       .  S
C655       C1075   1.468       .  S
C656        H663   1.086       .  S
C656        C657   1.368       .  D
C657        C658   1.542       .  S
C657       C1095   1.446       .  S
C658        C662   1.540       .  S
C658        C660   1.543       .  S
C658        H664   1.111       .  S
C659        H665   1.086       .  S
C659        C660   1.368       .  D
C660       C1080   1.447       .  S
C661        H666   1.087       .  S
C661        C662   1.355       .  D
C662       C1078   1.434       .  S
O667        C682   1.260       .  A
O667       Al675   1.895       .  S
C668        O678   1.253       .  A
C668        O669   1.261       .  A
C668       C1092   1.429       .  S
O669       Al671   1.921       .  S
O670        C672   1.254       .  A
O670       Al671   1.882       .  S
Al671       O679   1.895       .  S
Al671       O681   1.927       .  S
Al671       O680   1.780       .  S
C672        O685   1.262       .  A
C672       C1077   1.429       .  S
O673        C683   1.254       .  A
O673       Al675   1.882       .  S
O674        C687   1.260       .  A
O674       Al684   1.896       .  S
Al675       O688   1.926       .  S
Al675       O685   1.921       .  S
Al675       O680   1.779       .  S
O676        C683   1.262       .  A
O676       Al684   1.921       .  S
O677        C686   1.265       .  A
O677       Al684   1.927       .  S
O678       Al684   1.882       .  S
O679        C686   1.260       .  A
O680       Al684   1.779       .  S
O681        C682   1.265       .  A
C682       C1069   1.436       .  S
C683       C1084   1.429       .  S
C686       C1074   1.435       .  S
C687        O688   1.265       .  A
C687       C1071   1.436       .  S
C689       C1111   1.448       .  S
C689        C690   1.411       .  A
C689       C1822   1.403   1_455  A
C690       C1126   1.448       .  S
C690       C1819   1.404   1_455  A
C691       C1818   1.404       .  A
C691        C692   1.404   1_556  A
C691        H696   1.086       .  S
C692       C1088   1.448       .  S
C692        C693   1.411       .  A
C693       C1079   1.448       .  S
C693        C694   1.403   1_554  A
C694       C1817   1.403       .  A
C694        H695   1.086       .  S
C697       C1110   1.448       .  S
C697        C698   1.410       .  A
C697        C702   1.404       .  A
C698       C1118   1.448       .  S
C698        C699   1.403       .  A
C699        C700   1.403   1_556  A
C699        H704   1.086       .  S
C700       C1086   1.448       .  S
C700        C701   1.411       .  A
C701       C1094   1.448       .  S
C701        C702   1.403   1_554  A
C702        H703   1.086       .  S
C705        C706   1.534       .  S
C705       C1839   1.525       .  S
C705        C709   1.534       .  S
C705       C1062   1.468       .  S
C706        H713   1.086       .  S
C706       C1835   1.368       .  D
C707        C708   1.542       .  S
C707       C1834   1.368       .  D
C707       C1065   1.447       .  S
C708        C712   1.540       .  S
C708        C710   1.542       .  S
C708        H714   1.111       .  S
C709        H715   1.086       .  S
C709       C1838   1.368       .  D
C710       C1837   1.368       .  D
C710       C1068   1.447       .  S
C711       C1833   1.525   1_455  S
C711        H716   1.087   1_455  S
C711        C712   1.355       .  D
C712       C1064   1.434       .  S
C717        C718   1.534       .  S
C717        C723   1.525       .  S
C717        C721   1.534       .  S
C717       C1053   1.468       .  S
C718        H725   1.086       .  S
C718        C719   1.368       .  D
C719        C720   1.542       .  S
C719       C1057   1.447       .  S
C720        C724   1.540       .  S
C720        C722   1.542       .  S
C720        H726   1.111       .  S
C721        H727   1.086       .  S
C721        C722   1.368       .  D
C722       C1060   1.447       .  S
C723        H728   1.087       .  S
C723        C724   1.355       .  D
C724       C1055   1.434       .  S
C729        C730   1.534       .  S
C729        C733   1.534       .  S
C729       C1045   1.468       .  S
C730        H737   1.086       .  S
C731        C732   1.542       .  S
C731       C1049   1.447       .  S
C732        C736   1.540       .  S
C732        C734   1.543       .  S
C732        H738   1.111       .  S
C733        H739   1.086       .  S
C734       C1052   1.447       .  S
C735        H740   1.087   1_565  S
C735        C736   1.355       .  D
C736       C1048   1.435       .  S
O741        C756   1.260       .  A
O741       Al749   1.895       .  S
C742        O752   1.254       .  A
C742        O743   1.262       .  A
C742       C1047   1.429       .  S
O743       Al745   1.921       .  S
O744        C746   1.253       .  A
O744       Al745   1.882       .  S
Al745       O753   1.895       .  S
Al745       O755   1.927       .  S
Al745       O754   1.779       .  S
C746        O759   1.262       .  A
C746       C1063   1.429       .  S
O747        C757   1.253       .  A
O747       Al749   1.882       .  S
O748        C761   1.260       .  A
O748       Al758   1.896       .  S
Al749       O762   1.926       .  S
Al749       O759   1.921       .  S
Al749       O754   1.779       .  S
O750        C757   1.262       .  A
O750       Al758   1.921       .  S
O751        C760   1.265       .  A
O751       Al758   1.927       .  S
O752       Al758   1.883       .  S
O753        C760   1.260       .  A
O754       Al758   1.779       .  S
O755        C756   1.265       .  A
C756       C1044   1.436       .  S
C757       C1056   1.429       .  S
C760       C1039   1.436       .  S
C761        O762   1.265       .  A
C761       C1041   1.436       .  S
C763        C764   1.534       .  S
C763        C769   1.525       .  S
C763        C767   1.534       .  S
C763       C1073   1.468       .  S
C764        H771   1.086       .  S
C764        C765   1.368       .  D
C765        C766   1.542       .  S
C765       C1037   1.446       .  S
C766        C770   1.540       .  S
C766        C768   1.543       .  S
C766        H772   1.111       .  S
C767        H773   1.086       .  S
C767        C768   1.368       .  D
C768       C1035   1.447       .  S
C769        H774   1.087       .  S
C769        C770   1.355       .  D
C770       C1034   1.434       .  S
C775        C776   1.534       .  S
C775        C781   1.525       .  S
C775        C779   1.534       .  S
C775       C1072   1.468       .  S
C776        H783   1.086       .  S
C776        C777   1.368       .  D
C777        C778   1.542       .  S
C777       C1029   1.447       .  S
C778        C782   1.540       .  S
C778        C780   1.542       .  S
C778        H784   1.111       .  S
C779        H785   1.086       .  S
C779        C780   1.368       .  D
C780       C1032   1.447       .  S
C781        H786   1.087       .  S
C781        C782   1.355       .  D
C782       C1027   1.435       .  S
C787        C788   1.534       .  S
C787        C793   1.525       .  S
C787        C791   1.534       .  S
C787       C1070   1.468       .  S
C788        H795   1.086       .  S
C788        C789   1.368       .  D
C789        C790   1.542       .  S
C789       C1025   1.447       .  S
C790        C794   1.540       .  S
C790        C792   1.542       .  S
C790        H796   1.111       .  S
C791        H797   1.086       .  S
C791        C792   1.368       .  D
C792       C1023   1.447       .  S
C793        H798   1.087       .  S
C793        C794   1.355       .  D
C794       C1022   1.434       .  S
O799        C814   1.260       .  A
O799      Al1935   1.895       .  S
C800        O810   1.254       .  A
C800        O801   1.262       .  A
C800       C1028   1.429       .  S
O801       Al803   1.921       .  S
O802        C804   1.253       .  A
Al803       O811   1.896       .  S
C804        O817   1.261       .  A
C804       C1021   1.429       .  S
O805        C815   1.254       .  A
O805       Al807   1.882       .  S
O806        C819   1.260       .  A
Al807      O1927   1.895   1_455  S
Al807       O820   1.926       .  S
Al807      O1945   1.920   1_455  S
Al807      O1940   1.779   1_455  S
O808        C815   1.262       .  A
O809        C818   1.265       .  A
O809      Al1944   1.926       .  S
O810      Al1944   1.882       .  S
O811        C818   1.260       .  A
O812      Al1935   1.779       .  S
O812      Al1380   1.779       .  S
O813        C814   1.265       .  A
C814       C1076   1.436       .  S
C815       C1033   1.429       .  S
Al816      O1937   1.926   1_455  S
Al816      O1938   1.882   1_455  S
Al816      O1376   1.779   1_465  S
O817      Al1935   1.920       .  S
C818       C1081   1.436       .  S
C819        O820   1.265       .  A
C819       C1089   1.436       .  S
C821       C1067   1.448       .  S
C821        C822   1.411       .  A
C821        C826   1.403       .  A
C822       C1058   1.448       .  S
C822        C823   1.404       .  A
C823        C824   1.404       .  A
C823        H828   1.086       .  S
C824       C1038   1.448       .  S
C824        C825   1.410       .  A
C825       C1024   1.448       .  S
C825        C826   1.403       .  A
C826        H827   1.086       .  S
C829       C1059   1.448       .  S
C829        C830   1.411       .  A
C829        C834   1.403       .  A
C830       C1050   1.448       .  S
C830        C831   1.404       .  A
C831        C832   1.403       .  A
C831        H836   1.086       .  S
C832       C1026   1.448       .  S
C832        C833   1.411       .  A
C833       C1031   1.448       .  S
C833        C834   1.403       .  A
C834        H835   1.086       .  S
C837       C1066   1.448       .  S
C837        C838   1.411       .  A
C837        C842   1.404       .  A
C838       C1051   1.448       .  S
C838        C839   1.403       .  A
C839        C840   1.403       .  A
C839        H844   1.086       .  S
C840       C1036   1.448       .  S
C840        C841   1.411       .  A
C841       C1030   1.448       .  S
C841        C842   1.404       .  A
C842        H843   1.086       .  S
C845        C846   1.534       .  S
C845        C851   1.525       .  S
C845        C849   1.534       .  S
C845       C1099   1.468       .  S
C846        H853   1.086       .  S
C846        C847   1.368       .  D
C847        C848   1.542       .  S
C848        C852   1.540       .  S
C848        C850   1.542       .  S
C848        H854   1.111       .  S
C849        H855   1.086       .  S
C849        C850   1.368       .  D
C850       C1020   1.447       .  S
C851        H856   1.087       .  S
C851        C852   1.355       .  D
C852       C1015   1.434       .  S
C857        C858   1.534       .  S
C857        C863   1.525       .  S
C857        C861   1.534       .  S
C857       C1102   1.468       .  S
C858        H865   1.086       .  S
C858        C859   1.368       .  D
C859        C860   1.542       .  S
C859       C1013   1.446       .  S
C860        C864   1.540       .  S
C860        C862   1.543       .  S
C860        H866   1.111       .  S
C861        H867   1.086       .  S
C861        C862   1.368       .  D
C862       C2139   1.447   1_455  S
C863        H868   1.087       .  S
C863        C864   1.355       .  D
C864       C1010   1.434       .  S
C869        C870   1.534       .  S
C869        C875   1.525       .  S
C869        C873   1.534       .  S
C869       C1103   1.468       .  S
C870        H877   1.086       .  S
C870        C871   1.368       .  D
C871        C872   1.542       .  S
C871       C2133   1.447   1_455  S
C872        C876   1.540       .  S
C872        C874   1.542       .  S
C872        H878   1.111       .  S
C873        H879   1.086       .  S
C873        C874   1.368       .  D
C875        H880   1.087       .  S
C875        C876   1.355       .  D
C876       C1003   1.434       .  S
O881       Al889   1.895       .  S
C882        O883   1.262       .  A
C882       C1016   1.429       .  S
O883       Al885   1.921       .  S
O884       C2014   1.254       .  A
O884       Al885   1.882       .  S
Al885       O893   1.896       .  S
Al885      O2023   1.926       .  S
C886       O2012   1.254   1_455  A
C886       C1004   1.429       .  S
O887        C897   1.253       .  A
O887       Al889   1.882       .  S
O888       C2029   1.260       .  A
O888       Al898   1.895       .  S
Al889       O902   1.927       .  S
Al889       O899   1.921       .  S
Al889      O2022   1.779   1_455  S
O890       C2025   1.262       .  A
O890       Al898   1.921       .  S
O891       Al898   1.926       .  S
O892       Al898   1.882       .  S
O893        C900   1.260       .  A
O894      Al2017   1.779       .  S
O894       Al898   1.779       .  S
O895        C896   1.265       .  A
O895      Al2013   1.926   1_455  S
C896       C1122   1.436       .  S
C897       O2018   1.262       .  A
C897       C1009   1.429       .  S
C900       C1113   1.436       .  S
C901       O2016   1.260   1_455  A
C901        O902   1.265       .  A
C901       C1105   1.435       .  S
C903        C904   1.534       .  S
C903        C909   1.525       .  S
C903        C907   1.534       .  S
C904        C905   1.368       .  D
C905        C906   1.542       .  S
C905        C999   1.447       .  S
C906        C910   1.540       .  S
C906        C908   1.542       .  S
C906        H912   1.111       .  S
C907        C908   1.368       .  D
C908       C1002   1.447       .  S
C909        H914   1.087       .  S
C909        C910   1.355       .  D
C910        C997   1.434       .  S
C915        C916   1.534       .  S
C915        C921   1.525       .  S
C915        C919   1.534       .  S
C915       C2171   1.468       .  S
C916       H2051   1.086       .  S
C916        C917   1.368       .  D
C917        C918   1.542       .  S
C917        C993   1.447       .  S
C918        C922   1.540       .  S
C918        C920   1.543       .  S
C918        H924   1.111       .  S
C919       H2053   1.086       .  S
C919        C920   1.368       .  D
C920        C996   1.447       .  S
C921        H926   1.087       .  S
C921        C922   1.355       .  D
C922        C992   1.435       .  S
H923       C2044   1.086   1_455  S
H925       C2047   1.086   1_455  S
C927        C928   1.534       .  S
C927        C933   1.525       .  S
C927        C931   1.534       .  S
C927       C1042   1.468       .  S
C928        H935   1.086       .  S
C928        C929   1.368       .  D
C929        C930   1.542       .  S
C929        C989   1.447       .  S
C930        C934   1.540       .  S
C930        C932   1.543       .  S
C930        H936   1.111       .  S
C931        H937   1.086       .  S
C931        C932   1.368       .  D
C932        C987   1.447       .  S
C933        H938   1.087       .  S
C933        C934   1.355       .  D
C934        C985   1.434       .  S
O939        C954   1.260       .  A
O939       Al947   1.895       .  S
C940        O950   1.254       .  A
C940        O941   1.262       .  A
C940        C986   1.429       .  S
O941       Al943   1.921       .  S
O942        C944   1.254       .  A
O942       Al943   1.883       .  S
Al943       O951   1.896       .  S
Al943       O953   1.927       .  S
Al943       O952   1.779       .  S
C944        O957   1.262       .  A
C944        C991   1.429       .  S
O945        C955   1.253       .  A
O945       Al947   1.881       .  S
O946        C959   1.260       .  A
O946       Al956   1.896       .  S
Al947       O960   1.926       .  S
Al947       O957   1.921       .  S
Al947       O952   1.779       .  S
O948        C955   1.262       .  A
O948       Al956   1.921       .  S
O949        C958   1.265       .  A
O949       Al956   1.927       .  S
O950       Al956   1.882       .  S
O951        C958   1.260       .  A
O952       Al956   1.779       .  S
O953        C954   1.265       .  A
C954       C1061   1.436       .  S
C955        C998   1.429       .  S
C958       C1054   1.436       .  S
C959        O960   1.265       .  A
C959       C1046   1.436       .  S
C961       C1006   1.448       .  S
C961        C962   1.411       .  A
C961        C966   1.403       .  A
C962       C1019   1.448       .  S
C962        C963   1.403       .  A
C963        C964   1.403       .  A
C963        H968   1.086       .  S
C964        C988   1.448       .  S
C964        C965   1.411       .  A
C965        C994   1.448       .  S
C965        C966   1.404       .  A
C966        H967   1.086       .  S
C969       C1014   1.448       .  S
C969        C970   1.410       .  A
C969        C974   1.404       .  A
C970       C1008   1.448       .  S
C970        C971   1.403       .  A
C971        C972   1.403       .  A
C971        H976   1.086       .  S
C972       C1001   1.448       .  S
C972        C973   1.411       .  A
C973        C990   1.448       .  S
C973        C974   1.403       .  A
C974        H975   1.086       .  S
C977       C1018   1.448       .  S
C977        C978   1.411       .  A
C977        C982   1.404       .  A
C978       C1012   1.448       .  S
C978        C979   1.403       .  A
C979        C980   1.403       .  A
C979        H984   1.086       .  S
C980        C995   1.448       .  S
C980        C981   1.411       .  A
C981       C1000   1.448       .  S
C981        C982   1.404       .  A
C982        H983   1.086       .  S
C985        C986   1.202       .  T
C987        C988   1.209       .  T
C989        C990   1.209       .  T
C991        C992   1.202       .  T
C993        C994   1.209       .  T
C995        C996   1.209       .  T
C997        C998   1.202       .  T
C999       C1000   1.209       .  T
C1001      C1002   1.209       .  T
C1003      C1004   1.202       .  T
C1005      C1999   1.447       .  S
C1005      C1006   1.209       .  T
C1007      C1008   1.209       .  T
C1009      C1010   1.202       .  T
C1011      C1990   1.447       .  S
C1011      C1012   1.209       .  T
C1013      C1014   1.209       .  T
C1015      C1016   1.202       .  T
C1017      C1018   1.209       .  T
C1019      C1020   1.209       .  T
C1021      C1022   1.202       .  T
C1023      C2152   1.209       .  T
C1024      C2151   1.209   1_455  T
C1027      C1028   1.202       .  T
C1029      C2158   1.209       .  T
C1030      C2157   1.209   1_455  T
C1031      C1032   1.209       .  T
C1033      C1034   1.202       .  T
C1037      C1038   1.209       .  T
C1039      C1040   1.206       .  T
C1041      C1042   1.207       .  T
C1043      C2043   1.468   1_455  S
C1043      C1044   1.206       .  T
C1045      C1046   1.206       .  T
C1047      C1048   1.203       .  T
C1049      C1050   1.209       .  T
C1051      C1052   1.209       .  T
C1053      C1054   1.207       .  T
C1055      C1056   1.202       .  T
C1057      C1058   1.209       .  T
C1059      C1060   1.209       .  T
C1061      C1062   1.206       .  T
C1063      C1064   1.202       .  T
C1065      C1066   1.209       .  T
C1067      C1068   1.209       .  T
C1069      C1070   1.206       .  T
C1071      C1072   1.207       .  T
C1073      C1074   1.206       .  T
C1075      C1076   1.206       .  T
C1077      C1078   1.202       .  T
C1079      C1080   1.209       .  T
C1081      C1082   1.206       .  T
C1083      C1084   1.202       .  T
C1085      C1086   1.209       .  T
C1087      C1088   1.209       .  T
C1089      C1090   1.206       .  T
C1091      C1092   1.202       .  T
C1093      C1094   1.209       .  T
C1095      C1096   1.209       .  T
C1097      C1098   1.209       .  T
C1099      C1100   1.206       .  T
C1101      C1102   1.206       .  T
C1103      C1104   1.207       .  T
C1105      C1106   1.206       .  T
C1107      C1108   1.202       .  T
C1109      C1110   1.209       .  T
C1111      C1112   1.209       .  T
C1113      C1114   1.207       .  T
C1115      C1116   1.202       .  T
C1117      C1118   1.209       .  T
C1119      C1120   1.209       .  T
C1121      C1122   1.206       .  T
C1123      C1124   1.202       .  T
C1125      C1126   1.209       .  T
C1127      C1128   1.209       .  T
C1129      C1130   1.534       .  S
C1129      C1135   1.525       .  S
C1129      C1133   1.534       .  S
C1129      C1685   1.468       .  S
C1130      H1137   1.086       .  S
C1130      C1131   1.368       .  D
C1131      C1132   1.541       .  S
C1131      C1689   1.447       .  S
C1132      C1136   1.540       .  S
C1132      C1134   1.542       .  S
C1132      H1138   1.111       .  S
C1133      H1139   1.086       .  S
C1133      C1134   1.368       .  D
C1134      C1691   1.447       .  S
C1135      H1140   1.087       .  S
C1135      C1136   1.355       .  D
C1136      C1688   1.434       .  S
C1141      C1142   1.534       .  S
C1141      C1147   1.525       .  S
C1141      C1145   1.534       .  S
C1141      C1678   1.468       .  S
C1142      H1149   1.086       .  S
C1142      C1143   1.368       .  D
C1143      C1144   1.542       .  S
C1143      C1683   1.447       .  S
C1144      C1148   1.540       .  S
C1144      C1146   1.543       .  S
C1144      H1150   1.111       .  S
C1145      H1151   1.086       .  S
C1145      C1146   1.368       .  D
C1146      C1681   1.447       .  S
C1147      H1152   1.087       .  S
C1147      C1148   1.355       .  D
C1148      C1680   1.435       .  S
C1153      C1154   1.534       .  S
C1153      C1159   1.525       .  S
C1153      C1157   1.534       .  S
C1153      C1670   1.468       .  S
C1154      H1161   1.086       .  S
C1154      C1155   1.368       .  D
C1155      C1156   1.542       .  S
C1155      C1673   1.446       .  S
C1156      C1160   1.540       .  S
C1156      C1158   1.543       .  S
C1156      H1162   1.111       .  S
C1157      H1163   1.086       .  S
C1157      C1158   1.368       .  D
C1158      C1676   1.447       .  S
C1159      H1164   1.087       .  S
C1159      C1160   1.355       .  D
C1160      C1671   1.434       .  S
O1165      C1180   1.260       .  A
O1165     Al1173   1.896       .  S
C1166      O1176   1.254       .  A
C1166      O1167   1.262       .  A
C1166      C1672   1.429       .  S
O1167     Al1169   1.921       .  S
O1168      C1170   1.254       .  A
O1168     Al1169   1.882       .  S
Al1169     O1177   1.895       .  S
Al1169     O1179   1.927       .  S
Al1169     O1178   1.779       .  S
C1170      O1183   1.262       .  A
C1170      C1687   1.429       .  S
O1171      C1181   1.253       .  A
O1171     Al1173   1.882       .  S
O1172      C1185   1.260       .  A
O1172     Al1182   1.895       .  S
Al1173     O1186   1.926       .  S
Al1173     O1183   1.921       .  S
Al1173     O1178   1.779       .  S
O1174      C1181   1.262       .  A
O1174     Al1182   1.921       .  S
O1175      C1184   1.265       .  A
O1175     Al1182   1.927       .  S
O1176     Al1182   1.883       .  S
O1177      C1184   1.260       .  A
O1178     Al1182   1.779       .  S
O1179      C1180   1.265       .  A
C1180      C1668   1.436       .  S
C1181      C1679   1.429       .  S
C1184      C1665   1.435       .  S
C1185      O1186   1.265       .  A
C1185      C1664   1.436       .  S
C1187      C1684   1.448       .  S
C1187      C1188   1.411       .  A
C1187      C1756   1.403       .  A
C1188      C1692   1.448       .  S
C1188      C1753   1.403       .  A
C1189      C1752   1.403   1_545  A
C1189      C1190   1.403   1_556  A
C1189      H1194   1.086       .  S
C1190      C1661   1.448       .  S
C1190      C1191   1.411       .  A
C1191      C1660   1.448       .  S
C1191      C1192   1.404   1_554  A
C1192      C1751   1.403   1_545  A
C1192      H1193   1.086       .  S
C1195      C1196   1.534       .  S
C1195      C1201   1.525       .  S
C1195      C1199   1.534       .  S
C1195      C1654   1.468       .  S
C1196      H1203   1.086       .  S
C1196      C1197   1.368       .  D
C1197      C1198   1.542       .  S
C1197      C1657   1.447       .  S
C1198      C1202   1.540       .  S
C1198      C1200   1.543       .  S
C1198      H1204   1.111       .  S
C1199      H1205   1.086       .  S
C1199      C1200   1.368       .  D
C1200      C1662   1.447       .  S
C1201      H1206   1.087       .  S
C1201      C1202   1.355       .  D
C1202      C1655   1.434       .  S
C1207      C1208   1.534       .  S
C1207      C1213   1.525       .  S
C1207      C1211   1.534       .  S
C1207      C1646   1.468       .  S
C1208      H1215   1.086       .  S
C1208      C1209   1.368       .  D
C1209      C1210   1.542       .  S
C1209      C1651   1.447       .  S
C1210      C1214   1.540       .  S
C1210      C1212   1.542       .  S
C1210      H1216   1.111       .  S
C1211      H1217   1.086       .  S
C1211      C1212   1.368       .  D
C1212      C1649   1.447       .  S
C1213      H1218   1.087       .  S
C1213      C1214   1.355       .  D
C1214      C1647   1.434       .  S
C1219      C1220   1.534       .  S
C1219      C1225   1.525       .  S
C1219      C1223   1.534       .  S
C1219      C1639   1.468       .  S
C1220      H1227   1.086       .  S
C1220      C1221   1.368       .  D
C1221      C1222   1.542       .  S
C1221      C1659   1.446       .  S
C1222      C1226   1.540       .  S
C1222      C1224   1.543       .  S
C1222      H1228   1.111       .  S
C1223      H1229   1.086       .  S
C1223      C1224   1.368       .  D
C1224      C1644   1.447       .  S
C1225      H1230   1.087       .  S
C1225      C1226   1.355       .  D
C1226      C1642   1.434       .  S
O1231      C1246   1.260       .  A
O1231     Al1239   1.895       .  S
C1232      O1242   1.253       .  A
C1232      O1233   1.261       .  A
C1232      C1656   1.429       .  S
O1233     Al1235   1.921       .  S
O1234      C1236   1.254       .  A
O1234     Al1235   1.882       .  S
Al1235     O1243   1.895       .  S
Al1235     O1245   1.927       .  S
Al1235     O1244   1.780       .  S
C1236      O1249   1.262       .  A
C1236      C1641   1.429       .  S
O1237      C1247   1.254       .  A
O1237     Al1239   1.882       .  S
O1238      C1251   1.260       .  A
O1238     Al1248   1.896       .  S
Al1239     O1252   1.926       .  S
Al1239     O1249   1.921       .  S
Al1239     O1244   1.779       .  S
O1240      C1247   1.262       .  A
O1240     Al1248   1.921       .  S
O1241      C1250   1.265       .  A
O1241     Al1248   1.927       .  S
O1242     Al1248   1.882       .  S
O1243      C1250   1.260       .  A
O1244     Al1248   1.779       .  S
O1245      C1246   1.265       .  A
C1246      C1633   1.436       .  S
C1247      C1648   1.429       .  S
C1250      C1638   1.435       .  S
C1251      O1252   1.265       .  A
C1251      C1635   1.436       .  S
C1253      C1675   1.448       .  S
C1253      C1254   1.411       .  A
C1254      C1690   1.448       .  S
C1255      C1256   1.404   1_556  A
C1255      H1260   1.086       .  S
C1256      C1652   1.448       .  S
C1256      C1257   1.411       .  A
C1257      C1643   1.448       .  S
C1257      C1258   1.403   1_554  A
C1258      H1259   1.086       .  S
C1261      C1674   1.448       .  S
C1261      C1262   1.411       .  A
C1261      C1266   1.404       .  A
C1262      C1682   1.448       .  S
C1262      C1263   1.403       .  A
C1263      C1264   1.403   1_556  A
C1263      H1268   1.086       .  S
C1264      C1650   1.448       .  S
C1264      C1265   1.411       .  A
C1265      C1658   1.448       .  S
C1265      C1266   1.403   1_554  A
C1266      H1267   1.086       .  S
C1269      C1270   1.534   1_655  S
C1269      C1273   1.534   1_655  S
C1269      C1626   1.468       .  S
C1270      H1277   1.086   1_455  S
C1271      C1272   1.542       .  S
C1271      C1629   1.447       .  S
C1272      C1276   1.540       .  S
C1272      C1274   1.542       .  S
C1272      H1278   1.111       .  S
C1273      H1279   1.086   1_455  S
C1274      C1632   1.447       .  S
C1275      H1280   1.087       .  S
C1275      C1276   1.355       .  D
C1276      C1628   1.434       .  S
C1281      C1282   1.534       .  S
C1281      C1287   1.525       .  S
C1281      C1285   1.534       .  S
C1281      C1617   1.468       .  S
C1282      H1289   1.086       .  S
C1282      C1283   1.368       .  D
C1283      C1284   1.542       .  S
C1283      C1621   1.447       .  S
C1284      C1288   1.540       .  S
C1284      C1286   1.542       .  S
C1284      H1290   1.111       .  S
C1285      H1291   1.086       .  S
C1285      C1286   1.368       .  D
C1286      C1624   1.447       .  S
C1287      H1292   1.087       .  S
C1287      C1288   1.355       .  D
C1288      C1619   1.434       .  S
C1293      C1294   1.534       .  S
C1293      C1863   1.525   1_545  S
C1293      C1297   1.534       .  S
C1293      C1609   1.468       .  S
C1294      H1301   1.086       .  S
C1294      C1859   1.368   1_545  D
C1295      C1296   1.542       .  S
C1295      C1858   1.368       .  D
C1295      C1613   1.447       .  S
C1296      C1300   1.540       .  S
C1296      C1298   1.543       .  S
C1296      H1302   1.111       .  S
C1297      H1303   1.086       .  S
C1297      C1862   1.368   1_545  D
C1298      C1861   1.368       .  D
C1298      C1616   1.447       .  S
C1299      C1857   1.525       .  S
C1299      H1304   1.087       .  S
C1299      C1300   1.355       .  D
C1300      C1612   1.435       .  S
O1305      C1320   1.260       .  A
O1305     Al1313   1.895       .  S
C1306      O1316   1.254       .  A
C1306      O1307   1.262       .  A
C1306      C1611   1.429       .  S
O1307     Al1309   1.921       .  S
O1308      C1310   1.253       .  A
O1308     Al1309   1.882       .  S
Al1309     O1317   1.895       .  S
Al1309     O1319   1.927       .  S
Al1309     O1318   1.779       .  S
C1310      O1323   1.262       .  A
C1310      C1627   1.429       .  S
O1311      C1321   1.253       .  A
O1311     Al1313   1.882       .  S
O1312      C1325   1.260       .  A
O1312     Al1322   1.896       .  S
Al1313     O1326   1.926       .  S
Al1313     O1323   1.921       .  S
Al1313     O1318   1.779       .  S
O1314      C1321   1.262       .  A
O1314     Al1322   1.921       .  S
O1315      C1324   1.265       .  A
O1315     Al1322   1.926       .  S
O1316     Al1322   1.883       .  S
O1317      C1324   1.260       .  A
O1318     Al1322   1.779       .  S
O1319      C1320   1.265       .  A
C1320      C1608   1.436       .  S
C1321      C1620   1.429       .  S
C1324      C1603   1.436       .  S
C1325      O1326   1.265       .  A
C1325      C1605   1.436       .  S
C1327      C1328   1.534       .  S
C1327      C1333   1.525       .  S
C1327      C1331   1.534       .  S
C1327      C1637   1.468       .  S
C1328      H1335   1.086       .  S
C1328      C1329   1.368       .  D
C1329      C1330   1.542       .  S
C1329      C1601   1.446       .  S
C1330      C1334   1.540       .  S
C1330      C1332   1.543       .  S
C1330      H1336   1.111       .  S
C1331      H1337   1.086       .  S
C1331      C1332   1.368       .  D
C1332      C1599   1.447       .  S
C1333      H1338   1.087       .  S
C1333      C1334   1.355       .  D
C1334      C1598   1.434       .  S
C1339      C1340   1.534       .  S
C1339      C1345   1.525       .  S
C1339      C1343   1.534       .  S
C1339      C1636   1.468       .  S
C1340      H1347   1.086       .  S
C1340      C1341   1.368       .  D
C1341      C1342   1.542       .  S
C1341      C1593   1.447       .  S
C1342      C1346   1.540       .  S
C1342      C1344   1.542       .  S
C1342      H1348   1.111       .  S
C1343      H1349   1.086       .  S
C1343      C1344   1.368       .  D
C1344      C1596   1.447       .  S
C1345      H1350   1.087       .  S
C1345      C1346   1.355       .  D
C1346      C1591   1.435       .  S
C1351      C1352   1.534       .  S
C1351      C1357   1.525       .  S
C1351      C1355   1.534       .  S
C1351      C1634   1.468       .  S
C1352      H1359   1.086       .  S
C1352      C1353   1.368       .  D
C1353      C1354   1.542       .  S
C1353      C1589   1.447       .  S
C1354      C1358   1.540       .  S
C1354      C1356   1.542       .  S
C1354      H1360   1.111       .  S
C1355      H1361   1.086       .  S
C1355      C1356   1.368       .  D
C1356      C1587   1.447       .  S
C1357      H1362   1.087       .  S
C1357      C1358   1.355       .  D
C1358      C1586   1.434       .  S
O1363      C1378   1.260       .  A
C1364      O1374   1.254       .  A
C1364      O1365   1.262       .  A
C1364      C1592   1.429       .  S
O1365     Al1367   1.921       .  S
O1366      C1368   1.253       .  A
O1366     Al1931   1.882   1_545  S
Al1367     O1930   1.882       .  S
Al1367     O1375   1.896       .  S
Al1367     O1941   1.927       .  S
Al1367     O1940   1.779       .  S
C1368      O1381   1.261       .  A
C1368      C1585   1.429       .  S
O1369      C1379   1.254       .  A
O1369     Al1371   1.882       .  S
O1370      C1383   1.260       .  A
O1370     Al1944   1.896   1_545  S
Al1371     O1384   1.926       .  S
O1372      C1379   1.262       .  A
O1372     Al1944   1.921   1_545  S
O1373      C1382   1.265       .  A
O1375      C1382   1.260       .  A
O1376     Al1931   1.779   1_545  S
O1377      C1378   1.265       .  A
O1377     Al1931   1.927   1_545  S
C1378      C1640   1.436       .  S
C1379      C1597   1.429       .  S
Al1380     O1934   1.896       .  S
Al1380     O1936   1.921       .  S
C1382      C1645   1.436       .  S
C1383      O1384   1.265       .  A
C1383      C1653   1.436       .  S
C1385      C1631   1.448       .  S
C1385      C1386   1.411       .  A
C1385      C1390   1.403       .  A
C1386      C1622   1.448       .  S
C1386      C1387   1.404       .  A
C1387      C1388   1.404       .  A
C1387      H1392   1.086       .  S
C1388      C1602   1.448       .  S
C1388      C1389   1.410       .  A
C1389      C1588   1.448       .  S
C1389      C1390   1.403       .  A
C1390      H1391   1.086       .  S
C1393      C1623   1.448       .  S
C1393      C1394   1.411       .  A
C1393      C1398   1.403       .  A
C1394      C1614   1.448       .  S
C1394      C1395   1.404       .  A
C1395      C1396   1.403       .  A
C1395      H1400   1.086       .  S
C1396      C1590   1.448       .  S
C1396      C1397   1.411       .  A
C1397      C1595   1.448       .  S
C1397      C1398   1.403       .  A
C1398      H1399   1.086       .  S
C1401      C1630   1.448       .  S
C1401      C1402   1.411       .  A
C1401      C1406   1.404       .  A
C1402      C1615   1.448       .  S
C1402      C1403   1.403       .  A
C1403      C1404   1.403       .  A
C1403      H1408   1.086       .  S
C1404      C1600   1.448       .  S
C1404      C1405   1.411       .  A
C1405      C1594   1.448       .  S
C1405      C1406   1.404       .  A
C1406      H1407   1.086       .  S
C1409      C1410   1.534       .  S
C1409      C1415   1.525       .  S
C1409      C1413   1.534       .  S
C1409      C1663   1.468       .  S
C1410      H1417   1.086       .  S
C1410      C1411   1.368       .  D
C1411      C1412   1.542       .  S
C1411      C2145   1.447       .  S
C1412      C1416   1.540       .  S
C1412      C1414   1.542       .  S
C1412      H1418   1.111       .  S
C1413      H1419   1.086       .  S
C1413      C1414   1.368       .  D
C1414      C1584   1.447       .  S
C1415      H1420   1.087       .  S
C1415      C1416   1.355       .  D
C1416      C1579   1.434       .  S
C1421      C1422   1.534       .  S
C1421      C1427   1.525       .  S
C1421      C1425   1.534       .  S
C1421      C1666   1.468       .  S
C1422      H1429   1.086       .  S
C1422      C1423   1.368       .  D
C1423      C1424   1.542       .  S
C1423      C1577   1.446       .  S
C1424      C1428   1.540       .  S
C1424      C1426   1.543       .  S
C1424      H1430   1.111       .  S
C1425      H1431   1.086       .  S
C1425      C1426   1.368       .  D
C1427      H1432   1.087       .  S
C1427      C1428   1.355       .  D
C1428      C1574   1.434       .  S
C1433      C1434   1.534       .  S
C1433      C1439   1.525       .  S
C1433      C1437   1.534       .  S
C1433      C1667   1.468       .  S
C1434      H1441   1.086       .  S
C1434      C1435   1.368       .  D
C1435      C1436   1.542       .  S
C1436      C1440   1.540       .  S
C1436      C1438   1.542       .  S
C1436      H1442   1.111       .  S
C1437      H1443   1.086       .  S
C1437      C1438   1.368       .  D
C1438      C2135   1.447       .  S
C1439      H1444   1.087       .  S
C1439      C1440   1.355       .  D
C1440      C1567   1.434       .  S
O1445      C2024   1.260   1_545  A
O1445     Al1453   1.895       .  S
C1446      O2020   1.254       .  A
C1446      O1447   1.262       .  A
C1446      C1580   1.429       .  S
O1447     Al1449   1.921       .  S
O1448     Al1449   1.882       .  S
Al1449     O1457   1.896       .  S
Al1449     O2022   1.779       .  S
C1450      O2027   1.262       .  A
C1450      C1568   1.429       .  S
O1451      C1461   1.253       .  A
O1451     Al1453   1.882       .  S
O1452     Al1462   1.895       .  S
Al1453     O1466   1.926       .  S
Al1453     O1463   1.921   1_545  S
O1454     Al1462   1.921   1_455  S
O1455      C2028   1.265   1_545  A
O1455     Al1462   1.926       .  S
O1456      C2010   1.254   1_545  A
O1456     Al1462   1.882       .  S
O1457      C1464   1.260       .  A
O1458     Al2013   1.779   1_545  S
O1458     Al1462   1.779       .  S
O1459      C1460   1.265       .  A
C1460      O2009   1.260       .  A
C1460      C1686   1.436       .  S
C1461      C1573   1.429       .  S
O1463      C2014   1.262       .  A
C1464      O2019   1.265       .  A
C1464      C1677   1.436       .  S
C1465      O1466   1.265       .  A
C1465      C1669   1.435       .  S
C1467      C1468   1.534       .  S
C1467      C1473   1.525       .  S
C1467      C1471   1.534       .  S
C1467      C2168   1.468   1_545  S
C1468      H2039   1.086   1_545  S
C1468      C1469   1.368       .  D
C1469      C1470   1.542       .  S
C1469      C1563   1.447       .  S
C1470      C1474   1.540       .  S
C1470      C1472   1.542       .  S
C1470      H1476   1.111       .  S
C1471      H2041   1.086       .  S
C1471      C1472   1.368       .  D
C1472      C1566   1.447       .  S
C1473      H1478   1.087       .  S
C1473      C1474   1.355       .  D
C1474      C1561   1.434       .  S
H1475      C2032   1.086       .  S
H1477      C2035   1.086       .  S
C1479      C1480   1.534       .  S
C1479      C1485   1.525       .  S
C1479      C1483   1.534       .  S
C1480      C1481   1.368       .  D
C1481      C1482   1.542       .  S
C1481      C1557   1.446       .  S
C1482      C1486   1.540       .  S
C1482      C1484   1.543       .  S
C1482      H1488   1.111       .  S
C1483      C1484   1.368       .  D
C1484      C1560   1.447       .  S
C1485      H1490   1.087       .  S
C1485      C1486   1.355       .  D
C1486      C1556   1.434       .  S
C1491      C1492   1.534       .  S
C1491      C1497   1.525       .  S
C1491      C1495   1.534       .  S
C1491      C1606   1.468       .  S
C1492      H1499   1.086       .  S
C1492      C1493   1.368       .  D
C1493      C1494   1.542       .  S
C1493      C1553   1.447       .  S
C1494      C1498   1.540       .  S
C1494      C1496   1.543       .  S
C1494      H1500   1.111       .  S
C1495      H1501   1.086       .  S
C1495      C1496   1.368       .  D
C1496      C1551   1.447       .  S
C1497      H1502   1.087       .  S
C1497      C1498   1.355       .  D
C1498      C1549   1.434       .  S
O1503      C1518   1.260       .  A
O1503     Al1511   1.895       .  S
C1504      O1514   1.254       .  A
C1504      O1505   1.262       .  A
C1504      C1550   1.429       .  S
O1505     Al1507   1.921       .  S
O1506      C1508   1.254       .  A
O1506     Al1507   1.882       .  S
Al1507     O1515   1.896       .  S
Al1507     O1517   1.927       .  S
Al1507     O1516   1.779       .  S
C1508      O1521   1.262       .  A
C1508      C1555   1.429       .  S
O1509      C1519   1.253       .  A
O1509     Al1511   1.881       .  S
O1510      C1523   1.260       .  A
O1510     Al1520   1.896       .  S
Al1511     O1524   1.926       .  S
Al1511     O1521   1.921       .  S
Al1511     O1516   1.779       .  S
O1512      C1519   1.262       .  A
O1512     Al1520   1.921       .  S
O1513      C1522   1.265       .  A
O1513     Al1520   1.927       .  S
O1514     Al1520   1.882       .  S
O1515      C1522   1.260       .  A
O1516     Al1520   1.779       .  S
O1517      C1518   1.265       .  A
C1518      C1625   1.436       .  S
C1519      C1562   1.429       .  S
C1522      C1618   1.436       .  S
C1523      O1524   1.265       .  A
C1523      C1610   1.436       .  S
C1525      C1570   1.448       .  S
C1525      C1526   1.411       .  A
C1525      C1530   1.403       .  A
C1526      C1583   1.448       .  S
C1526      C1527   1.403       .  A
C1527      C1528   1.403       .  A
C1527      H1532   1.086       .  S
C1528      C1552   1.448       .  S
C1528      C1529   1.411       .  A
C1529      C1558   1.448       .  S
C1529      C1530   1.404       .  A
C1530      H1531   1.086       .  S
C1533      C1578   1.448       .  S
C1533      C1534   1.410       .  A
C1533      C1538   1.404       .  A
C1534      C1572   1.448       .  S
C1534      C1535   1.403       .  A
C1535      C1536   1.403       .  A
C1535      H1540   1.086       .  S
C1536      C1565   1.448       .  S
C1536      C1537   1.411       .  A
C1537      C1554   1.448       .  S
C1537      C1538   1.404       .  A
C1538      H1539   1.086       .  S
C1541      C1582   1.448       .  S
C1541      C1542   1.411       .  A
C1541      C1546   1.404       .  A
C1542      C1576   1.448       .  S
C1542      C1543   1.403       .  A
C1543      C1544   1.403       .  A
C1543      H1548   1.086       .  S
C1544      C1559   1.448       .  S
C1544      C1545   1.411       .  A
C1545      C1564   1.448       .  S
C1545      C1546   1.404       .  A
C1546      H1547   1.086       .  S
C1549      C1550   1.202       .  T
C1551      C1552   1.209       .  T
C1553      C1554   1.209       .  T
C1555      C1556   1.202       .  T
C1557      C1558   1.209       .  T
C1559      C1560   1.209       .  T
C1561      C1562   1.202       .  T
C1563      C1564   1.209       .  T
C1565      C1566   1.209       .  T
C1567      C1568   1.202       .  T
C1569      C1570   1.209       .  T
C1571      C2002   1.447   1_545  S
C1571      C1572   1.209       .  T
C1573      C1574   1.202       .  T
C1575      C1576   1.209       .  T
C1577      C1578   1.209       .  T
C1579      C1580   1.202       .  T
C1581      C1975   1.447   1_545  S
C1581      C1582   1.209       .  T
C1583      C1584   1.209       .  T
C1585      C1586   1.202       .  T
C1589      C2154   1.209   1_545  T
C1590      C2153   1.209       .  T
C1591      C1592   1.202       .  T
C1595      C1596   1.209       .  T
C1597      C1598   1.202       .  T
C1599      C2164   1.209   1_545  T
C1600      C2163   1.209       .  T
C1601      C1602   1.209       .  T
C1603      C1604   1.206       .  T
C1604      C2031   1.468       .  S
C1605      C1606   1.207       .  T
C1607      C1608   1.206       .  T
C1609      C1610   1.206       .  T
C1611      C1612   1.203       .  T
C1613      C1614   1.209       .  T
C1615      C1616   1.209       .  T
C1617      C1618   1.207       .  T
C1619      C1620   1.202       .  T
C1621      C1622   1.209       .  T
C1623      C1624   1.209       .  T
C1625      C1626   1.206       .  T
C1627      C1628   1.202       .  T
C1629      C1630   1.209       .  T
C1631      C1632   1.209       .  T
C1633      C1634   1.206       .  T
C1635      C1636   1.207       .  T
C1637      C1638   1.206       .  T
C1639      C1640   1.206       .  T
C1641      C1642   1.202       .  T
C1643      C1644   1.209       .  T
C1645      C1646   1.206       .  T
C1647      C1648   1.202       .  T
C1649      C1650   1.209       .  T
C1651      C1652   1.209       .  T
C1653      C1654   1.206       .  T
C1655      C1656   1.202       .  T
C1657      C1658   1.209       .  T
C1659      C1660   1.209       .  T
C1661      C1662   1.209       .  T
C1663      C1664   1.206       .  T
C1665      C1666   1.206       .  T
C1667      C1668   1.207       .  T
C1669      C1670   1.206       .  T
C1671      C1672   1.202       .  T
C1673      C1674   1.209       .  T
C1675      C1676   1.209       .  T
C1677      C1678   1.207       .  T
C1679      C1680   1.202       .  T
C1681      C1682   1.209       .  T
C1683      C1684   1.209       .  T
C1685      C1686   1.206       .  T
C1687      C1688   1.202       .  T
C1689      C1690   1.209       .  T
C1691      C1692   1.209       .  T
C1693      C1694   1.534       .  S
C1693      C1699   1.525       .  S
C1693      C1697   1.534       .  S
C1693      C2249   1.468       .  S
C1694      H1701   1.086       .  S
C1694      C1695   1.368       .  D
C1695      C1696   1.541       .  S
C1695      C2253   1.447       .  S
C1696      C1700   1.540       .  S
C1696      C1698   1.542       .  S
C1696      H1702   1.111       .  S
C1697      H1703   1.086       .  S
C1697      C1698   1.368       .  D
C1698      C2255   1.447       .  S
C1699      H1704   1.087       .  S
C1699      C1700   1.355       .  D
C1700      C2252   1.434       .  S
C1705      C1706   1.534       .  S
C1705      C1711   1.525       .  S
C1705      C1709   1.534       .  S
C1705      C2242   1.468       .  S
C1706      H1713   1.086       .  S
C1706      C1707   1.368       .  D
C1707      C1708   1.542       .  S
C1707      C2247   1.447       .  S
C1708      C1712   1.540       .  S
C1708      C1710   1.542       .  S
C1708      H1714   1.111       .  S
C1709      H1715   1.086       .  S
C1709      C1710   1.368       .  D
C1710      C2245   1.447       .  S
C1711      H1716   1.087       .  S
C1711      C1712   1.355       .  D
C1712      C2244   1.434       .  S
C1717      C1718   1.534       .  S
C1717      C1723   1.525       .  S
C1717      C1721   1.534       .  S
C1717      C2234   1.468       .  S
C1718      H1725   1.086       .  S
C1718      C1719   1.368       .  D
C1719      C1720   1.542       .  S
C1719      C2237   1.446       .  S
C1720      C1724   1.540       .  S
C1720      C1722   1.543       .  S
C1720      H1726   1.111       .  S
C1721      H1727   1.086       .  S
C1721      C1722   1.368       .  D
C1722      C2240   1.447       .  S
C1723      H1728   1.087       .  S
C1723      C1724   1.355       .  D
C1724      C2235   1.434       .  S
O1729      C1744   1.260       .  A
O1729     Al1737   1.896       .  S
C1730      O1740   1.254       .  A
C1730      O1731   1.261       .  A
C1730      C2236   1.429       .  S
O1731     Al1733   1.921       .  S
O1732      C1734   1.254       .  A
O1732     Al1733   1.882       .  S
Al1733     O1741   1.895       .  S
Al1733     O1743   1.927       .  S
Al1733     O1742   1.779       .  S
C1734      O1747   1.262       .  A
C1734      C2251   1.429       .  S
O1735      C1745   1.253       .  A
O1735     Al1737   1.882       .  S
O1736      C1749   1.260       .  A
O1736     Al1746   1.895       .  S
Al1737     O1750   1.926       .  S
Al1737     O1747   1.921       .  S
Al1737     O1742   1.779       .  S
O1738      C1745   1.262       .  A
O1738     Al1746   1.921       .  S
O1739      C1748   1.265       .  A
O1739     Al1746   1.927       .  S
O1740     Al1746   1.883       .  S
O1741      C1748   1.260       .  A
O1742     Al1746   1.779       .  S
O1743      C1744   1.265       .  A
C1744      C2232   1.436       .  S
C1745      C2243   1.429       .  S
C1748      C2229   1.435       .  S
C1749      O1750   1.265       .  A
C1749      C2228   1.436       .  S
C1751      C2248   1.448       .  S
C1751      C1752   1.411       .  A
C1752      C2256   1.448       .  S
C1753      C1754   1.403   1_556  A
C1753      H1758   1.086       .  S
C1754      C2225   1.448       .  S
C1754      C1755   1.411       .  A
C1755      C2224   1.448       .  S
C1755      C1756   1.404   1_554  A
C1756      H1757   1.086       .  S
C1759      C1760   1.534       .  S
C1759      C1765   1.525       .  S
C1759      C1763   1.534       .  S
C1759      C2218   1.468       .  S
C1760      H1767   1.086       .  S
C1760      C1761   1.368       .  D
C1761      C1762   1.542       .  S
C1761      C2221   1.447       .  S
C1762      C1766   1.540       .  S
C1762      C1764   1.543       .  S
C1762      H1768   1.111       .  S
C1763      H1769   1.086       .  S
C1763      C1764   1.368       .  D
C1764      C2226   1.447       .  S
C1765      H1770   1.087       .  S
C1765      C1766   1.355       .  D
C1766      C2219   1.434       .  S
C1771      C1772   1.534       .  S
C1771      C1777   1.525       .  S
C1771      C1775   1.534       .  S
C1771      C2210   1.468       .  S
C1772      H1779   1.086       .  S
C1772      C1773   1.368       .  D
C1773      C1774   1.542       .  S
C1773      C2215   1.447       .  S
C1774      C1778   1.540       .  S
C1774      C1776   1.542       .  S
C1774      H1780   1.111       .  S
C1775      H1781   1.086       .  S
C1775      C1776   1.368       .  D
C1776      C2213   1.447       .  S
C1777      H1782   1.087       .  S
C1777      C1778   1.355       .  D
C1778      C2211   1.434       .  S
C1783      C1784   1.534       .  S
C1783      C1789   1.525       .  S
C1783      C1787   1.534       .  S
C1783      C2203   1.468       .  S
C1784      H1791   1.086       .  S
C1784      C1785   1.368       .  D
C1785      C1786   1.542       .  S
C1785      C2223   1.446       .  S
C1786      C1790   1.540       .  S
C1786      C1788   1.543       .  S
C1786      H1792   1.111       .  S
C1787      H1793   1.086       .  S
C1787      C1788   1.368       .  D
C1788      C2208   1.447       .  S
C1789      H1794   1.087       .  S
C1789      C1790   1.355       .  D
C1790      C2206   1.434       .  S
O1795      C1810   1.260       .  A
O1795     Al1803   1.895       .  S
C1796      O1806   1.253       .  A
C1796      O1797   1.261       .  A
C1796      C2220   1.429       .  S
O1797     Al1799   1.921       .  S
O1798      C1800   1.254       .  A
O1798     Al1799   1.882       .  S
Al1799     O1807   1.895       .  S
Al1799     O1809   1.927       .  S
Al1799     O1808   1.780       .  S
C1800      O1813   1.262       .  A
C1800      C2205   1.429       .  S
O1801      C1811   1.254       .  A
O1801     Al1803   1.882       .  S
O1802      C1815   1.260       .  A
O1802     Al1812   1.896       .  S
Al1803     O1816   1.926       .  S
Al1803     O1813   1.921       .  S
Al1803     O1808   1.779       .  S
O1804      C1811   1.262       .  A
O1804     Al1812   1.921       .  S
O1805      C1814   1.265       .  A
O1805     Al1812   1.927       .  S
O1806     Al1812   1.882       .  S
O1807      C1814   1.260       .  A
O1808     Al1812   1.779       .  S
O1809      C1810   1.265       .  A
C1810      C2197   1.436       .  S
C1811      C2212   1.429       .  S
C1814      C2202   1.435       .  S
C1815      O1816   1.265       .  A
C1815      C2199   1.436       .  S
C1817      C2239   1.448       .  S
C1817      C1818   1.411       .  A
C1818      C2254   1.448       .  S
C1819      C1820   1.404   1_556  A
C1819      H1824   1.086       .  S
C1820      C2216   1.448       .  S
C1820      C1821   1.411       .  A
C1821      C2207   1.448       .  S
C1821      C1822   1.403   1_554  A
C1822      H1823   1.086       .  S
C1825      C2238   1.448       .  S
C1825      C1826   1.410       .  A
C1825      C1830   1.404       .  A
C1826      C2246   1.448       .  S
C1826      C1827   1.403       .  A
C1827      C1828   1.403   1_556  A
C1827      H1832   1.086       .  S
C1828      C2214   1.448       .  S
C1828      C1829   1.411       .  A
C1829      C2222   1.448       .  S
C1829      C1830   1.403   1_554  A
C1830      H1831   1.086       .  S
C1833      C1834   1.534   1_655  S
C1833      C1837   1.534   1_655  S
C1833      C2190   1.468       .  S
C1834      H1841   1.086   1_455  S
C1835      C1836   1.542       .  S
C1835      C2193   1.447       .  S
C1836      C1840   1.540       .  S
C1836      C1838   1.542       .  S
C1836      H1842   1.111       .  S
C1837      H1843   1.086   1_455  S
C1838      C2196   1.447       .  S
C1839      H1844   1.087       .  S
C1839      C1840   1.355       .  D
C1840      C2192   1.434       .  S
C1845      C1846   1.534       .  S
C1845      C1851   1.525       .  S
C1845      C1849   1.534       .  S
C1845      C2181   1.468       .  S
C1846      H1853   1.086       .  S
C1846      C1847   1.368       .  D
C1847      C1848   1.542       .  S
C1847      C2185   1.447       .  S
C1848      C1852   1.540       .  S
C1848      C1850   1.542       .  S
C1848      H1854   1.111       .  S
C1849      H1855   1.086       .  S
C1849      C1850   1.368       .  D
C1850      C2188   1.447       .  S
C1851      H1856   1.087       .  S
C1851      C1852   1.355       .  D
C1852      C2183   1.434       .  S
C1857      C1858   1.534       .  S
C1857      C1861   1.534       .  S
C1857      C2173   1.468       .  S
C1858      H1865   1.086       .  S
C1859      C1860   1.542       .  S
C1859      C2177   1.447       .  S
C1860      C1864   1.540       .  S
C1860      C1862   1.543       .  S
C1860      H1866   1.111       .  S
C1861      H1867   1.086       .  S
C1862      C2180   1.447       .  S
C1863      H1868   1.087   1_565  S
C1863      C1864   1.355       .  D
C1864      C2176   1.435       .  S
O1869      C1884   1.260       .  A
O1869     Al1877   1.895       .  S
C1870      O1880   1.254       .  A
C1870      O1871   1.262       .  A
C1870      C2175   1.429       .  S
O1871     Al1873   1.921       .  S
O1872      C1874   1.253       .  A
O1872     Al1873   1.882       .  S
Al1873     O1881   1.895       .  S
Al1873     O1883   1.927       .  S
Al1873     O1882   1.779       .  S
C1874      O1887   1.262       .  A
C1874      C2191   1.429       .  S
O1875      C1885   1.253       .  A
O1875     Al1877   1.882       .  S
O1876      C1889   1.260       .  A
O1876     Al1886   1.896       .  S
Al1877     O1890   1.926       .  S
Al1877     O1887   1.921       .  S
Al1877     O1882   1.779       .  S
O1878      C1885   1.262       .  A
O1878     Al1886   1.921       .  S
O1879      C1888   1.265       .  A
O1879     Al1886   1.927       .  S
O1880     Al1886   1.883       .  S
O1881      C1888   1.260       .  A
O1882     Al1886   1.779       .  S
O1883      C1884   1.265       .  A
C1884      C2172   1.436       .  S
C1885      C2184   1.429       .  S
C1888      C2167   1.436       .  S
C1889      O1890   1.265       .  A
C1889      C2169   1.436       .  S
C1891      C1892   1.534       .  S
C1891      C1897   1.525       .  S
C1891      C1895   1.534       .  S
C1891      C2201   1.468       .  S
C1892      H1899   1.086       .  S
C1892      C1893   1.368       .  D
C1893      C1894   1.542       .  S
C1893      C2165   1.446       .  S
C1894      C1898   1.540       .  S
C1894      C1896   1.543       .  S
C1894      H1900   1.111       .  S
C1895      H1901   1.086       .  S
C1895      C1896   1.368       .  D
C1896      C2163   1.447       .  S
C1897      H1902   1.087       .  S
C1897      C1898   1.355       .  D
C1898      C2162   1.434       .  S
C1903      C1904   1.534       .  S
C1903      C1909   1.525       .  S
C1903      C1907   1.534       .  S
C1903      C2200   1.468       .  S
C1904      H1911   1.086       .  S
C1904      C1905   1.368       .  D
C1905      C1906   1.542       .  S
C1905      C2157   1.447       .  S
C1906      C1910   1.540       .  S
C1906      C1908   1.542       .  S
C1906      H1912   1.111       .  S
C1907      H1913   1.086       .  S
C1907      C1908   1.368       .  D
C1908      C2160   1.447       .  S
C1909      H1914   1.087       .  S
C1909      C1910   1.355       .  D
C1910      C2155   1.435       .  S
C1915      C1916   1.534       .  S
C1915      C1921   1.525       .  S
C1915      C1919   1.534       .  S
C1915      C2198   1.468       .  S
C1916      H1923   1.086       .  S
C1916      C1917   1.368       .  D
C1917      C1918   1.542       .  S
C1917      C2153   1.447       .  S
C1918      C1922   1.540       .  S
C1918      C1920   1.542       .  S
C1918      H1924   1.111       .  S
C1919      H1925   1.086       .  S
C1919      C1920   1.368       .  D
C1920      C2151   1.447       .  S
C1921      H1926   1.087       .  S
C1921      C1922   1.355       .  D
C1922      C2150   1.434       .  S
O1927      C1942   1.260       .  A
C1928      O1938   1.254       .  A
C1928      O1929   1.262       .  A
C1928      C2156   1.429       .  S
O1929     Al1931   1.921       .  S
O1930      C1932   1.253       .  A
Al1931     O1939   1.896       .  S
C1932      O1945   1.261       .  A
C1932      C2149   1.429       .  S
O1933      C1943   1.254       .  A
O1933     Al1935   1.882       .  S
O1934      C1947   1.260       .  A
Al1935     O1948   1.926       .  S
O1936      C1943   1.262       .  A
O1937      C1946   1.265       .  A
O1939      C1946   1.260       .  A
O1941      C1942   1.265       .  A
C1942      C2204   1.436       .  S
C1943      C2161   1.429       .  S
C1946      C2209   1.436       .  S
C1947      O1948   1.265       .  A
C1947      C2217   1.436       .  S
C1949      C2195   1.448       .  S
C1949      C1950   1.411       .  A
C1949      C1954   1.403       .  A
C1950      C2186   1.448       .  S
C1950      C1951   1.404       .  A
C1951      C1952   1.404       .  A
C1951      H1956   1.086       .  S
C1952      C2166   1.448       .  S
C1952      C1953   1.410       .  A
C1953      C2152   1.448       .  S
C1953      C1954   1.403       .  A
C1954      H1955   1.086       .  S
C1957      C2187   1.448       .  S
C1957      C1958   1.411       .  A
C1957      C1962   1.403       .  A
C1958      C2178   1.448       .  S
C1958      C1959   1.404       .  A
C1959      C1960   1.403       .  A
C1959      H1964   1.086       .  S
C1960      C2154   1.448       .  S
C1960      C1961   1.411       .  A
C1961      C2159   1.448       .  S
C1961      C1962   1.403       .  A
C1962      H1963   1.086       .  S
C1965      C2194   1.448       .  S
C1965      C1966   1.411       .  A
C1965      C1970   1.404       .  A
C1966      C2179   1.448       .  S
C1966      C1967   1.403       .  A
C1967      C1968   1.403       .  A
C1967      H1972   1.086       .  S
C1968      C2164   1.448       .  S
C1968      C1969   1.411       .  A
C1969      C2158   1.448       .  S
C1969      C1970   1.404       .  A
C1970      H1971   1.086       .  S
C1973      C1974   1.534       .  S
C1973      C1979   1.525       .  S
C1973      C1977   1.534       .  S
C1973      C2227   1.468       .  S
C1974      H1981   1.086       .  S
C1974      C1975   1.368       .  D
C1975      C1976   1.542       .  S
C1976      C1980   1.540       .  S
C1976      C1978   1.542       .  S
C1976      H1982   1.111       .  S
C1977      H1983   1.086       .  S
C1977      C1978   1.368       .  D
C1978      C2148   1.447       .  S
C1979      H1984   1.087       .  S
C1979      C1980   1.355       .  D
C1980      C2143   1.434       .  S
C1985      C1986   1.534       .  S
C1985      C1991   1.525       .  S
C1985      C1989   1.534       .  S
C1985      C2230   1.468       .  S
C1986      H1993   1.086       .  S
C1986      C1987   1.368       .  D
C1987      C1988   1.542       .  S
C1987      C2141   1.446       .  S
C1988      C1992   1.540       .  S
C1988      C1990   1.543       .  S
C1988      H1994   1.111       .  S
C1989      H1995   1.086       .  S
C1989      C1990   1.368       .  D
C1991      H1996   1.087       .  S
C1991      C1992   1.355       .  D
C1992      C2138   1.434       .  S
C1997      C1998   1.534       .  S
C1997      C2003   1.525       .  S
C1997      C2001   1.534       .  S
C1997      C2231   1.468       .  S
C1998      H2005   1.086       .  S
C1998      C1999   1.368       .  D
C1999      C2000   1.542       .  S
C2000      C2004   1.540       .  S
C2000      C2002   1.542       .  S
C2000      H2006   1.111       .  S
C2001      H2007   1.086       .  S
C2001      C2002   1.368       .  D
C2003      H2008   1.087       .  S
C2003      C2004   1.355       .  D
C2004      C2131   1.434       .  S
O2009     Al2017   1.895       .  S
C2010      O2011   1.262       .  A
C2010      C2144   1.429       .  S
O2011     Al2013   1.921       .  S
O2012     Al2013   1.882       .  S
Al2013     O2021   1.896       .  S
C2014      C2132   1.429       .  S
O2015      C2025   1.253       .  A
O2015     Al2017   1.882       .  S
O2016     Al2026   1.895       .  S
Al2017     O2030   1.927       .  S
Al2017     O2027   1.921       .  S
O2018     Al2026   1.921   1_455  S
O2019     Al2026   1.926       .  S
O2020     Al2026   1.882       .  S
O2021      C2028   1.260       .  A
O2022     Al2026   1.779       .  S
O2023      C2024   1.265       .  A
C2024      C2250   1.436       .  S
C2025      C2137   1.429       .  S
C2028      C2241   1.436       .  S
C2029      O2030   1.265       .  A
C2029      C2233   1.435       .  S
C2031      C2032   1.534       .  S
C2031      C2037   1.525       .  S
C2031      C2035   1.534       .  S
C2032      C2033   1.368       .  D
C2033      C2034   1.542       .  S
C2033      C2127   1.447       .  S
C2034      C2038   1.540       .  S
C2034      C2036   1.542       .  S
C2034      H2040   1.111       .  S
C2035      C2036   1.368       .  D
C2036      C2130   1.447       .  S
C2037      H2042   1.087       .  S
C2037      C2038   1.355       .  D
C2038      C2125   1.434       .  S
C2043      C2044   1.534       .  S
C2043      C2049   1.525       .  S
C2043      C2047   1.534       .  S
C2044      C2045   1.368       .  D
C2045      C2046   1.542       .  S
C2045      C2121   1.447       .  S
C2046      C2050   1.540       .  S
C2046      C2048   1.543       .  S
C2046      H2052   1.111       .  S
C2047      C2048   1.368       .  D
C2048      C2124   1.447       .  S
C2049      H2054   1.087       .  S
C2049      C2050   1.355       .  D
C2050      C2120   1.435       .  S
C2055      C2056   1.534       .  S
C2055      C2061   1.525       .  S
C2055      C2059   1.534       .  S
C2055      C2170   1.468       .  S
C2056      H2063   1.086       .  S
C2056      C2057   1.368       .  D
C2057      C2058   1.542       .  S
C2057      C2117   1.447       .  S
C2058      C2062   1.540       .  S
C2058      C2060   1.543       .  S
C2058      H2064   1.111       .  S
C2059      H2065   1.086       .  S
C2059      C2060   1.368       .  D
C2060      C2115   1.447       .  S
C2061      H2066   1.087       .  S
C2061      C2062   1.355       .  D
C2062      C2113   1.434       .  S
O2067      C2082   1.260       .  A
O2067     Al2075   1.895       .  S
C2068      O2078   1.254       .  A
C2068      O2069   1.262       .  A
C2068      C2114   1.429       .  S
O2069     Al2071   1.921       .  S
O2070      C2072   1.254       .  A
O2070     Al2071   1.883       .  S
Al2071     O2079   1.896       .  S
Al2071     O2081   1.927       .  S
Al2071     O2080   1.779       .  S
C2072      O2085   1.262       .  A
C2072      C2119   1.429       .  S
O2073      C2083   1.253       .  A
O2073     Al2075   1.881       .  S
O2074      C2087   1.260       .  A
O2074     Al2084   1.896       .  S
Al2075     O2088   1.926       .  S
Al2075     O2085   1.921       .  S
Al2075     O2080   1.779       .  S
O2076      C2083   1.262       .  A
O2076     Al2084   1.921       .  S
O2077      C2086   1.265       .  A
O2077     Al2084   1.927       .  S
O2078     Al2084   1.882       .  S
O2079      C2086   1.260       .  A
O2080     Al2084   1.779       .  S
O2081      C2082   1.265       .  A
C2082      C2189   1.436       .  S
C2083      C2126   1.429       .  S
C2086      C2182   1.436       .  S
C2087      O2088   1.265       .  A
C2087      C2174   1.436       .  S
C2089      C2134   1.448       .  S
C2089      C2090   1.411       .  A
C2089      C2094   1.403       .  A
C2090      C2147   1.448       .  S
C2090      C2091   1.403       .  A
C2091      C2092   1.403       .  A
C2091      H2096   1.086       .  S
C2092      C2116   1.448       .  S
C2092      C2093   1.411       .  A
C2093      C2122   1.448       .  S
C2093      C2094   1.404       .  A
C2094      H2095   1.086       .  S
C2097      C2142   1.448       .  S
C2097      C2098   1.410       .  A
C2097      C2102   1.404       .  A
C2098      C2136   1.448       .  S
C2098      C2099   1.403       .  A
C2099      C2100   1.403       .  A
C2099      H2104   1.086       .  S
C2100      C2129   1.448       .  S
C2100      C2101   1.411       .  A
C2101      C2118   1.448       .  S
C2101      C2102   1.403       .  A
C2102      H2103   1.086       .  S
C2105      C2146   1.448       .  S
C2105      C2106   1.411       .  A
C2105      C2110   1.404       .  A
C2106      C2140   1.448       .  S
C2106      C2107   1.403       .  A
C2107      C2108   1.403       .  A
C2107      H2112   1.086       .  S
C2108      C2123   1.448       .  S
C2108      C2109   1.411       .  A
C2109      C2128   1.448       .  S
C2109      C2110   1.404       .  A
C2110      H2111   1.086       .  S
C2113      C2114   1.202       .  T
C2115      C2116   1.209       .  T
C2117      C2118   1.209       .  T
C2119      C2120   1.202       .  T
C2121      C2122   1.209       .  T
C2123      C2124   1.209       .  T
C2125      C2126   1.202       .  T
C2127      C2128   1.209       .  T
C2129      C2130   1.209       .  T
C2131      C2132   1.202       .  T
C2133      C2134   1.209       .  T
C2135      C2136   1.209       .  T
C2137      C2138   1.202       .  T
C2139      C2140   1.209       .  T
C2141      C2142   1.209       .  T
C2143      C2144   1.202       .  T
C2145      C2146   1.209       .  T
C2147      C2148   1.209       .  T
C2149      C2150   1.202       .  T
C2155      C2156   1.202       .  T
C2159      C2160   1.209       .  T
C2161      C2162   1.202       .  T
C2165      C2166   1.209       .  T
C2167      C2168   1.206       .  T
C2169      C2170   1.207       .  T
C2171      C2172   1.206       .  T
C2173      C2174   1.206       .  T
C2175      C2176   1.203       .  T
C2177      C2178   1.209       .  T
C2179      C2180   1.209       .  T
C2181      C2182   1.207       .  T
C2183      C2184   1.202       .  T
C2185      C2186   1.209       .  T
C2187      C2188   1.209       .  T
C2189      C2190   1.206       .  T
C2191      C2192   1.202       .  T
C2193      C2194   1.209       .  T
C2195      C2196   1.209       .  T
C2197      C2198   1.206       .  T
C2199      C2200   1.207       .  T
C2201      C2202   1.206       .  T
C2203      C2204   1.206       .  T
C2205      C2206   1.202       .  T
C2207      C2208   1.209       .  T
C2209      C2210   1.206       .  T
C2211      C2212   1.202       .  T
C2213      C2214   1.209       .  T
C2215      C2216   1.209       .  T
C2217      C2218   1.206       .  T
C2219      C2220   1.202       .  T
C2221      C2222   1.209       .  T
C2223      C2224   1.209       .  T
C2225      C2226   1.209       .  T
C2227      C2228   1.206       .  T
C2229      C2230   1.206       .  T
C2231      C2232   1.207       .  T
C2233      C2234   1.206       .  T
C2235      C2236   1.202       .  T
C2237      C2238   1.209       .  T
C2239      C2240   1.209       .  T
C2241      C2242   1.207       .  T
C2243      C2244   1.202       .  T
C2245      C2246   1.209       .  T
C2247      C2248   1.209       .  T
C2249      C2250   1.206       .  T
C2251      C2252   1.202       .  T
C2253      C2254   1.209       .  T
C2255      C2256   1.209       .  T
