geometry optimzed in LAMMPS
_audit_creation_date              2020-11-30 
_audit_creation_method            'lammps2cif' 
_symmetry_space_group_name_H-M    'P1' 
_symmetry_Int_Tables_number       1 
_symmetry_cell_setting            triclinic 
loop_ 
_symmetry_equiv_pos_as_xyz 
  x,y,z 
_cell_length_a                    32.73663615 
_cell_length_b                    32.90562747999823 
_cell_length_c                    32.098491336181446 
_cell_angle_alpha                 90.33746964351118 
_cell_angle_beta                  90.53939567048943 
_cell_angle_gamma                 89.7756761971086 
loop_ 
_atom_site_label 
_atom_site_type_symbol 
_atom_site_fract_x 
_atom_site_fract_y 
_atom_site_fract_z 
_atom_site_charge 
C1          C  0.53425101  0.20467925  0.51334765     0.81500
N2          N  0.55816424  0.20851123  0.47909945    -0.76800
C3          C  0.59860518  0.21662960  0.48319546     0.84000
N4          N  0.61523116  0.22136850  0.02146444    -0.76700
C5          C  0.59171083  0.21857151  0.05578637     0.84100
N6          N  0.55117789  0.21143842  0.05162545    -0.78400
Fe7        Fe  0.78134831  0.19301721  0.21114869     1.65800
Fe8        Fe  0.79567561  0.19397495  0.31577026     1.73200
Fe9        Fe  0.74208849  0.27021489  0.26942122     1.54400
O10         O  0.78006494  0.29823436  0.22718711    -0.80400
O11         O  0.74463461  0.20790264  0.34991065    -0.78700
O12         O  0.79260258  0.24763879  0.18242804    -0.82900
O13         O  0.72050010  0.19555784  0.19624704    -0.77700
O14         O  0.77744418  0.29326466  0.31791040    -0.79500
O15         O  0.76904049  0.13882358  0.30175722    -0.82300
C16         C  0.69585018  0.22515923  0.19785481     0.98500
C17         C  0.79390859  0.28495450  0.19274245     1.05900
O18         O  0.77319927  0.21912537  0.26542217    -1.11200
O19         O  0.85004627  0.17700716  0.28828751    -0.73700
O20         O  0.84311958  0.18718754  0.22016830    -0.77200
O21         O  0.70162595  0.25569736  0.22147987    -0.77800
C22         C  0.86460112  0.17820932  0.25181681     0.97400
O23         O  0.77088175  0.13531412  0.23272427    -0.75800
O24         O  0.82372274  0.24673869  0.33540481    -0.81000
C25         C  0.71020592  0.22507450  0.34461699     1.00000
C26         C  0.80849150  0.28207443  0.33897384     1.06000
O27         O  0.70192334  0.24579877  0.31221014    -0.76600
C28         C  0.76369874  0.11955404  0.26780151     1.04300
C29         C  0.83261848  0.44685291  0.01686797     0.81500
N30         N  0.83549422  0.42567683  0.48148917    -0.76800
C31         C  0.83962388  0.38448633  0.48149342     0.84000
N32         N  0.84064394  0.36465291  0.01799202    -0.76700
C33         C  0.83671615  0.38537614  0.05437100     0.84100
N34         N  0.83255294  0.42634064  0.05345121    -0.78400
C35         C  0.72196715  0.94866563  0.26823785     0.81500
N36         N  0.72242775  0.92760950  0.30442445    -0.76800
C37         C  0.72076771  0.88650218  0.30445280     0.84000
N38         N  0.71888423  0.86619930  0.26757187    -0.76700
C39         C  0.71841160  0.88651022  0.23091588     0.84100
N40         N  0.72036198  0.92780181  0.23146745    -0.78400
Fe41       Fe  0.77155558  0.69615256  0.06639279     1.65800
Fe42       Fe  0.78093095  0.69522952  0.46175752     1.73200
Fe43       Fe  0.82035062  0.77335330  0.51823668     1.54400
O44         O  0.78593177  0.79643553  0.06763818    -0.80400
O45         O  0.84166921  0.69768562  0.44588414    -0.78700
O46         O  0.74301174  0.74842685  0.08738241    -0.82900
O47         O  0.82385262  0.71198434  0.09863530    -0.77700
O48         O  0.77906156  0.80010842  0.47786476    -0.79500
O49         O  0.79094778  0.63720118  0.48338112    -0.82300
C50         C  0.85634902  0.73203776  0.09252056     0.98500
C51         C  0.75650983  0.78447732  0.08986830     1.05900
O52         O  0.79116314  0.72139863  0.51559620    -1.11200
O53         O  0.71936650  0.69061357  0.47282289    -0.73700
O54         O  0.71635296  0.67836009  0.04048695    -0.77200
O55         O  0.86280252  0.75174560  0.05929304    -0.77800
C56         C  0.69992337  0.68016457  0.50501644     0.97400
O57         O  0.79810146  0.64077666  0.05135679    -0.75800
O58         O  0.76906382  0.74957268  0.43249593    -0.81000
C59         C  0.86488694  0.72843861  0.44600963     1.00000
C60         C  0.76592439  0.78666906  0.44308513     1.06000
O61         O  0.85840475  0.75935550  0.46888963    -0.76600
C62         C  0.79924970  0.62107858  0.01721170     1.04300
C63         C  0.02941696  0.71296836  0.26548361     0.81500
N64         N  0.01223724  0.71631670  0.30391632    -0.76800
C65         C  0.97267563  0.72776052  0.30761830     0.84000
N66         N  0.94997954  0.73513872  0.27313209    -0.76700
C67         C  0.96609007  0.73113872  0.23451044     0.84100
N68         N  0.00587485  0.72009111  0.23109624    -0.78400
C69         C  0.33872399  0.89754178  0.23188919     0.81500
N70         N  0.34264488  0.91880682  0.26820399    -0.76800
C71         C  0.34599438  0.95998347  0.26822771     0.84000
N72         N  0.34492836  0.97991351  0.23131187    -0.76700
C73         C  0.34089001  0.95921837  0.19478827     0.84100
N74         N  0.33756188  0.91817506  0.19542015    -0.78400
Fe75       Fe  0.28050997  0.14977583  0.03671224     1.65800
Fe76       Fe  0.29212336  0.15079238  0.43136199     1.73200
Fe77       Fe  0.24319044  0.07157785  0.47677700     1.54400
O78         O  0.28419456  0.04503996  0.02006556    -0.80400
O79         O  0.24157479  0.13499709  0.39668671    -0.78700
O80         O  0.29431573  0.09558124  0.06542833    -0.82900
O81         O  0.21969212  0.14469908  0.05162493    -0.77700
O82         O  0.27970418  0.05033889  0.42926369    -0.79500
O83         O  0.26373396  0.20536428  0.44630860    -0.82300
C84         C  0.19657963  0.11394751  0.04917904     0.98500
C85         C  0.29714850  0.05845031  0.05494347     1.05900
O86         O  0.27179856  0.12386160  0.48133978    -1.11200
O87         O  0.34589861  0.16930254  0.45927988    -0.73700
O88         O  0.34199711  0.15734156  0.02697891    -0.77200
O89         O  0.20379828  0.08395562  0.02534796    -0.77800
C90         C  0.36205918  0.16644630  0.49520677     0.97400
O91         O  0.26811806  0.20744432  0.01586990    -0.75800
O92         O  0.32235053  0.09917929  0.41074942    -0.81000
C93         C  0.20902552  0.11469496  0.40100934     1.00000
C94         C  0.30975105  0.06278054  0.40821717     1.06000
O95         O  0.20180978  0.09394596  0.43339570    -0.76600
C96         C  0.25949736  0.22438781  0.98155742     1.04300
C97         C  0.03446323  0.13502087  0.22972289     0.81500
N98         N  0.05017929  0.12898601  0.19104040    -0.76800
C99         C  0.08941642  0.11640713  0.18668382     0.84000
N100        N  0.11310632  0.11084525  0.22095306    -0.76700
C101        C  0.09830245  0.11764285  0.25961107     0.84100
N102        N  0.05883066  0.12951956  0.26381537    -0.78400
C103        C  0.22310765  0.39711939  0.48508437     0.81500
N104        N  0.21812493  0.41798014  0.02244670    -0.76800
C105        C  0.21577812  0.45927766  0.02316332     0.84000
N106        N  0.21885756  0.47952843  0.48643202    -0.76700
C107        C  0.22413992  0.45984288  0.44962617     0.84100
N108        N  0.22642405  0.41868412  0.44930634    -0.78400
Fe109      Fe  0.28279211  0.65161605  0.28946674     1.65800
Fe110      Fe  0.26959318  0.65025124  0.18495230     1.73200
Fe111      Fe  0.32067543  0.57266743  0.23256763     1.54400
O112        O  0.36199469  0.58825087  0.27933516    -0.80400
O113        O  0.24025463  0.59785635  0.16590781    -0.78700
O114        O  0.34394105  0.64911533  0.30388733    -0.82900
O115        O  0.27226359  0.59791003  0.32003109    -0.77700
O116        O  0.36091320  0.59430645  0.18821939    -0.79500
O117        O  0.21595556  0.66908880  0.21230234    -0.82300
C118        C  0.27062843  0.56035647  0.31104051     0.98500
C119        C  0.36821505  0.61908766  0.30250613     1.05900
O120        O  0.29101078  0.62474844  0.23561223    -1.11200
O121        O  0.29720827  0.70533356  0.19828358    -0.73700
O122        O  0.29226498  0.70911144  0.26698440    -0.77200
O123        O  0.28320353  0.54619790  0.27646502    -0.77800
C124        C  0.30018655  0.72512982  0.23222892     0.97400
O125        O  0.22076245  0.65687801  0.28007795    -0.74600
O126        O  0.31994279  0.63450556  0.15083648    -0.81000
C127        C  0.25325091  0.56149030  0.16387720     1.00000
C128        C  0.35307849  0.61492442  0.15566548     1.06000
O129        O  0.28356366  0.54923251  0.18549937    -0.76600
C130        C  0.20022745  0.66742947  0.24822508     1.04300
C131        C  0.52777537  0.64063635  0.48863722     0.81500
N132        N  0.50340273  0.63532909  0.02077194    -0.76800
C133        C  0.46367864  0.62420807  0.01603173     0.84000
N134        N  0.44865853  0.61846658  0.47891957    -0.76700
C135        C  0.47176981  0.62523127  0.44498611     0.84100
N136        N  0.51119058  0.63654405  0.44987332    -0.78400
C137        C  0.42412378  0.65411747  0.34230411     0.24900
C138        C  0.40257829  0.61837950  0.33236503    -0.23200
C139        C  0.40885907  0.58341682  0.35661587     0.19800
C140        C  0.43348368  0.58516505  0.39225591     0.24800
C141        C  0.45310722  0.62144791  0.40348209    -0.23200
C142        C  0.44974764  0.65545765  0.37744522     0.19700
F143        F  0.46841938  0.69088069  0.38800262    -0.13100
F144        F  0.41872068  0.68820619  0.31922138    -0.15500
F145        F  0.43648252  0.55201628  0.41712098    -0.15500
F146        F  0.38793177  0.54870727  0.34825515    -0.13100
C147        C  0.36717596  0.62169851  0.07995593     0.24900
C148        C  0.38229579  0.61587471  0.12071369    -0.23200
C149        C  0.42468801  0.61166808  0.12692694     0.19800
C150        C  0.45142300  0.61425079  0.09307762     0.24800
C151        C  0.43614585  0.62073673  0.05237931    -0.23200
C152        C  0.39359256  0.62430643  0.04642730     0.19700
F153        F  0.37706916  0.63131314  0.00814713    -0.13100
F154        F  0.32638585  0.62442625  0.07214311    -0.15500
F155        F  0.49213503  0.61001271  0.10020654    -0.15500
F156        F  0.44034886  0.60598524  0.16577225    -0.13100
C157        C  0.22853078  0.54795889  0.37449937     0.24900
C158        C  0.25442824  0.53264997  0.34320093    -0.23200
C159        C  0.26723501  0.49183515  0.34532044     0.19800
C160        C  0.25592560  0.46748013  0.37892644     0.24800
C161        C  0.23163970  0.48348512  0.41122406    -0.23200
C162        C  0.21726597  0.52370126  0.40797248     0.19700
F163        F  0.19259690  0.53996678  0.43753509    -0.13100
F164        F  0.21449977  0.58684476  0.37323974    -0.15500
F165        F  0.27090062  0.42900213  0.38093800    -0.15500
F166        F  0.29282103  0.47610041  0.31629794    -0.13100
C167        C  0.23378411  0.46606099  0.09964288     0.24900
C168        C  0.21641155  0.48260271  0.06311492    -0.23200
C169        C  0.20431326  0.52374847  0.06364290     0.19800
C170        C  0.21344634  0.54872816  0.09780981     0.24800
C171        C  0.23474627  0.53319868  0.13263648    -0.23200
C172        C  0.24295788  0.49110155  0.13395263     0.19700
F173        F  0.26172802  0.47433729  0.16765700    -0.13100
F174        F  0.24467264  0.42627730  0.10136522    -0.15500
F175        F  0.20409081  0.58887300  0.09512465    -0.15500
F176        F  0.18517377  0.54055441  0.03018673    -0.13100
C177        C  0.22908990  0.33042511  0.44606321     0.24900
C178        C  0.22779454  0.35234141  0.98499594    -0.23200
C179        C  0.23715916  0.33109684  0.02183622     0.19800
C180        C  0.24634627  0.28965097  0.02070402     0.24800
C181        C  0.24650116  0.26788133  0.98262214    -0.23200
C182        C  0.23842632  0.28885843  0.44489318     0.19700
F183        F  0.23902093  0.26971532  0.40731106    -0.13100
F184        F  0.22059178  0.34931956  0.40948819    -0.15500
F185        F  0.25621637  0.27132221  0.05726095    -0.15500
F186        F  0.23898639  0.35044848  0.05924911    -0.13100
C187        C  0.13590964  0.14470941  0.08442757     0.24900
C188        C  0.16205960  0.11135316  0.07795988    -0.23200
C189        C  0.15878355  0.07700570  0.10349657     0.19800
C190        C  0.13238709  0.07749101  0.13733987     0.24800
C191        C  0.10820887  0.11189094  0.14554848    -0.23200
C192        C  0.10859942  0.14472225  0.11775467     0.19700
F193        F  0.08535069  0.17822351  0.12505209    -0.13100
F194        F  0.13815782  0.17788222  0.05961634    -0.15500
F195        F  0.13219920  0.04531308  0.16365260    -0.15500
F196        F  0.18398950  0.04453232  0.09813157    -0.13100
C197        C  0.19482770  0.11978647  0.32497832     0.24900
C198        C  0.17988961  0.11438786  0.36555908    -0.23200
C199        C  0.13780384  0.10827097  0.37107778     0.19800
C200        C  0.11104759  0.10893046  0.33670490     0.24800
C201        C  0.12606944  0.11520644  0.29622265    -0.23200
C202        C  0.16837147  0.12030055  0.29088006     0.19700
F203        F  0.18448113  0.12689657  0.25267406    -0.13100
F204        F  0.23546025  0.12396702  0.31791369    -0.15500
F205        F  0.07057244  0.10303122  0.34307868    -0.15500
F206        F  0.12244259  0.10244297  0.40971077    -0.13100
C207        C  0.29862654  0.99052541  0.08953215     0.24900
C208        C  0.31435177  0.03002628  0.08600535    -0.23200
C209        C  0.34287698  0.04393632  0.11589513     0.19800
C210        C  0.35313265  0.02001210  0.15024524     0.24800
C211        C  0.33521071  0.98163421  0.15534383    -0.23200
C212        C  0.30892066  0.96653534  0.12389412     0.19700
F213        F  0.29059558  0.92982636  0.12781794    -0.13100
F214        F  0.27072637  0.97627293  0.06154652    -0.15500
F215        F  0.37993058  0.03484312  0.17903087    -0.15500
F216        F  0.36002147  0.08128310  0.11250135    -0.13100
C217        C  0.35972933  0.02373472  0.30962554     0.24900
C218        C  0.34504900  0.98354878  0.30790584    -0.23200
C219        C  0.32547655  0.96782445  0.34316996     0.19800
C220        C  0.31733304  0.99274874  0.37752048     0.24800
C221        C  0.32812333  0.03422272  0.37739287    -0.23200
C222        C  0.35146269  0.04878464  0.34399260     0.19700
F223        F  0.36411186  0.08801164  0.34309805    -0.13100
F224        F  0.38078481  0.03943947  0.27726880    -0.15500
F225        F  0.29677205  0.97655385  0.40997972    -0.15500
F226        F  0.31117200  0.92917837  0.34343199    -0.13100
C227        C  0.33077340  0.83018528  0.19448059     0.24900
C228        C  0.33198329  0.85275387  0.23206771    -0.23200
C229        C  0.32471479  0.83221056  0.26963455     0.19800
C230        C  0.31518918  0.79093393  0.26958952     0.24800
C231        C  0.31266733  0.76861966  0.23194516    -0.23200
C232        C  0.32123201  0.78875369  0.19444101     0.19700
F233        F  0.31994156  0.76865632  0.15738603    -0.13100
F234        F  0.33852514  0.84802663  0.15736538    -0.15500
F235        F  0.30774397  0.77321835  0.30685275    -0.15500
F236        F  0.32572147  0.85199466  0.30683816    -0.13100
C237        C  0.09687793  0.69029914  0.29641708     0.24900
C238        C  0.07310070  0.70107470  0.26126636    -0.23200
C239        C  0.09180242  0.70053726  0.22182543     0.19800
C240        C  0.13272572  0.68947909  0.21770458     0.24800
C241        C  0.15645091  0.67861929  0.25281675    -0.23200
C242        C  0.13791537  0.67929982  0.29228079     0.19700
F243        F  0.15941258  0.66961411  0.32723915    -0.13100
F244        F  0.08070178  0.69025107  0.33522428    -0.15500
F245        F  0.14893276  0.68971994  0.17889992    -0.15500
F246        F  0.07086554  0.71104976  0.18682206    -0.13100
C247        C  0.63418208  0.67855846  0.46380347     0.24900
C248        C  0.65568271  0.67067164  0.50113694    -0.23200
C249        C  0.63261683  0.65803354  0.03507427     0.19800
C250        C  0.59125137  0.64846684  0.03078835     0.24800
C251        C  0.57149092  0.65182374  0.49343558    -0.23200
C252        C  0.59272878  0.66933780  0.46003147     0.19700
F253        F  0.57346549  0.67810015  0.42350313    -0.13100
F254        F  0.65302265  0.69547751  0.43065527    -0.15500
F255        F  0.57132327  0.63458882  0.06472901    -0.15500
F256        F  0.65050388  0.65333082  0.07309481    -0.13100
C257        C  0.87031710  0.73833984  0.16792226     0.24900
C258        C  0.88572943  0.73446382  0.12743346    -0.23200
C259        C  0.92814791  0.73342663  0.12164154     0.19800
C260        C  0.95471133  0.73359823  0.15623678     0.24800
C261        C  0.93906802  0.73528123  0.19720210    -0.23200
C262        C  0.89644192  0.73888213  0.20223019     0.19700
F263        F  0.87927068  0.74208383  0.24047429    -0.13100
F264        F  0.82950281  0.74205895  0.17440678    -0.15500
F265        F  0.99550631  0.73178134  0.14946826    -0.15500
F266        F  0.94382745  0.73087184  0.08269091    -0.13100
C267        C  0.92021737  0.69404863  0.40511868     0.24900
C268        C  0.89882814  0.72965520  0.41609268    -0.23200
C269        C  0.90661713  0.76585587  0.39442812     0.19800
C270        C  0.93294427  0.76568465  0.36046962     0.24800
C271        C  0.95271880  0.72972289  0.34835734    -0.23200
C272        C  0.94736535  0.69421221  0.37164947     0.19700
F273        F  0.96581058  0.65898715  0.35993197    -0.13100
F274        F  0.91368200  0.65881383  0.42577833    -0.15500
F275        F  0.93757160  0.80020298  0.33803657    -0.15500
F276        F  0.88612721  0.80065539  0.40377444    -0.13100
C277        C  0.70629064  0.82317138  0.18873185     0.24900
C278        C  0.72109637  0.86324573  0.19119585    -0.23200
C279        C  0.74228543  0.87898300  0.15696661     0.19800
C280        C  0.75142040  0.85417602  0.12268296     0.24800
C281        C  0.73954013  0.81295336  0.12171595    -0.23200
C282        C  0.71532286  0.79834533  0.15446804     0.19700
F283        F  0.70220345  0.75925784  0.15479195    -0.13100
F284        F  0.68403953  0.80740965  0.22021523    -0.15500
F285        F  0.77357791  0.87027858  0.09131151    -0.15500
F286        F  0.75680003  0.91758524  0.15770376    -0.13100
C287        C  0.71078729  0.82415180  0.34704862     0.24900
C288        C  0.72620123  0.86376689  0.34368627    -0.23200
C289        C  0.75012855  0.87978042  0.37661785     0.19800
C290        C  0.76081999  0.85557809  0.41067640     0.24800
C291        C  0.74798586  0.81490986  0.41230749    -0.23200
C292        C  0.72145661  0.80001730  0.38102138     0.19700
F293        F  0.70678775  0.76150571  0.38257424    -0.13100
F294        F  0.68623536  0.80825546  0.31681578    -0.15500
F295        F  0.78630680  0.87107747  0.44032464    -0.15500
F296        F  0.76598027  0.91775217  0.37452268    -0.13100
C297        C  0.81278440  0.55524502  0.05480267     0.24900
C298        C  0.80992406  0.57696197  0.01724634    -0.23200
C299        C  0.81892104  0.55603248  0.48085651     0.19800
C300        C  0.82635393  0.51415969  0.48070609     0.24800
C301        C  0.82590797  0.49183409  0.01685184    -0.23200
C302        C  0.82069827  0.51345610  0.05466149     0.19700
F303        F  0.82261001  0.49437164  0.09200528    -0.13100
F304        F  0.80691817  0.57408434  0.09203055    -0.15500
F305        F  0.83389005  0.49570805  0.44361800    -0.15500
F306        F  0.81322202  0.57481563  0.94221008    -0.13100
C307        C  0.92139930  0.15070338  0.20824328     0.24900
C308        C  0.90819243  0.16830721  0.24584411    -0.23200
C309        C  0.93693131  0.17584648  0.27774244     0.19800
C310        C  0.97800719  0.16571439  0.27229159     0.24800
C311        C  0.99122146  0.14745542  0.23487250    -0.23200
C312        C  0.96239290  0.14034115  0.20281450     0.19700
F313        F  0.97340552  0.12213954  0.16652528    -0.13100
F314        F  0.89437020  0.14208273  0.17710111    -0.15500
F315        F  0.00480922  0.17442439  0.30360586    -0.15500
F316        F  0.92546081  0.19375667  0.31404909    -0.13100
C317        C  0.74927137  0.05489072  0.30619024     0.24900
C318        C  0.74906322  0.07692809  0.26877691    -0.23200
C319        C  0.73548693  0.05741057  0.23195037     0.19800
C320        C  0.72506181  0.01629373  0.23205747     0.24800
C321        C  0.72783569  0.99350910  0.26897998    -0.23200
C322        C  0.73869565  0.01384488  0.30636395     0.19700
F323        F  0.74044353  0.99405149  0.34330519    -0.13100
F324        F  0.76099939  0.07252025  0.34273079    -0.15500
F325        F  0.71258969  0.99892508  0.19565467    -0.15500
F326        F  0.73238105  0.07793853  0.19546867    -0.13100
C327        C  0.83888142  0.29961397  0.13208291     0.24900
C328        C  0.81088580  0.31359996  0.16206880    -0.23200
C329        C  0.79617730  0.35371746  0.15942297     0.19800
C330        C  0.80662275  0.37816084  0.12566190     0.24800
C331        C  0.83193597  0.36288856  0.09385547    -0.23200
C332        C  0.84927716  0.32398469  0.09838414     0.19700
F333        F  0.87560917  0.30902749  0.06961764    -0.13100
F334        F  0.85541126  0.26176862  0.13467141    -0.15500
F335        F  0.78938676  0.41563049  0.12270673    -0.15500
F336        F  0.76921552  0.36835633  0.18772982    -0.13100
C337        C  0.82307308  0.37700125  0.40479284     0.24900
C338        C  0.83937660  0.36058171  0.44189380    -0.23200
C339        C  0.85178064  0.31945975  0.44180007     0.19800
C340        C  0.84468650  0.29463676  0.40701713     0.24800
C341        C  0.82499777  0.31021551  0.37130805    -0.23200
C342        C  0.81591800  0.35208373  0.36997361     0.19700
F343        F  0.79837411  0.36871056  0.33553047    -0.13100
F344        F  0.81145957  0.41658419  0.40277474    -0.15500
F345        F  0.85437593  0.25456223  0.40975138    -0.15500
F346        F  0.86936422  0.30250897  0.47604225    -0.13100
C347        C  0.61626197  0.18728073  0.12169042     0.24900
C348        C  0.61082551  0.22196297  0.09702848    -0.23200
C349        C  0.62837341  0.25889401  0.10949374     0.19800
C350        C  0.65305595  0.26077525  0.14513619     0.24800
C351        C  0.66137263  0.22535458  0.16808220    -0.23200
C352        C  0.64176207  0.18883625  0.15686646     0.19700
F353        F  0.64894714  0.15429203  0.17874786    -0.13100
F354        F  0.59946902  0.15128754  0.10988959    -0.15500
F355        F  0.67195544  0.29631405  0.15479713    -0.15500
F356        F  0.62329138  0.29264496  0.08583648    -0.13100
C357        C  0.61342226  0.23651430  0.40931982     0.24900
C358        C  0.62541401  0.21734780  0.44651814    -0.23200
C359        C  0.66405417  0.19898413  0.44907959     0.19800
C360        C  0.69077326  0.20055217  0.41568251     0.24800
C361        C  0.67979192  0.22108823  0.37861046    -0.23200
C362        C  0.64046366  0.23868080  0.37571623     0.19700
F363        F  0.62825182  0.25852114  0.34077102    -0.13100
F364        F  0.57614180  0.25449175  0.40605770    -0.15500
F365        F  0.72776101  0.18220279  0.42036805    -0.15500
F366        F  0.67597551  0.17884943  0.48400054    -0.13100
C367        C  0.42287996  0.18527818  0.53946950     0.24900
C368        C  0.40602770  0.17612026  0.50005733    -0.23200
C369        C  0.42938927  0.18756729  0.96473991     0.19800
C370        C  0.47069368  0.19711583  0.96900975     0.24800
C371        C  0.49007322  0.19499060  0.50877940    -0.23200
C372        C  0.46429097  0.19463040  0.54381329     0.19700
F373        F  0.47874220  0.20368107  0.58253819    -0.13100
F374        F  0.39920804  0.18598732  0.57398907    -0.15500
F375        F  0.49221960  0.20403623  0.93381276    -0.15500
F376        F  0.41329338  0.18533734  0.92564548    -0.13100
C377        C  0.53373883  0.20783145  0.01318726     0.81500
N378        N  0.55770362  0.21080919  0.97890349    -0.76800
C379        C  0.59843081  0.21738621  0.98291125     0.84000
N380        N  0.61507703  0.22150871  0.52176493    -0.76700
C381        C  0.59164547  0.21792760  0.55606255     0.84100
N382        N  0.55144757  0.20905091  0.55184218    -0.78400
Fe383      Fe  0.78154440  0.19232106  0.71118706     1.65800
Fe384      Fe  0.79515035  0.19272778  0.81588850     1.73200
Fe385      Fe  0.74258802  0.26960626  0.76953862     1.54400
O386        O  0.78100306  0.29742767  0.72768143    -0.80400
O387        O  0.74415297  0.20716698  0.84978206    -0.78700
O388        O  0.79338314  0.24693710  0.68275904    -0.82900
O389        O  0.72073141  0.19544588  0.69589834    -0.77700
O390        O  0.77797231  0.29216395  0.81823198    -0.79500
O391        O  0.76776213  0.13802778  0.80145425    -0.82300
C392        C  0.69631588  0.22524348  0.69761698     0.98500
C393        C  0.79480820  0.28420978  0.69321003     1.05900
O394        O  0.77328592  0.21829377  0.76550000    -1.11200
O395        O  0.84945470  0.17502594  0.78869803    -0.73700
O396        O  0.84327880  0.18586560  0.72064029    -0.77200
O397        O  0.70227064  0.25565701  0.72134561    -0.77800
C398        C  0.86438343  0.17629142  0.75238914     0.97400
O399        O  0.77041402  0.13470089  0.73246794    -0.75800
O400        O  0.82373507  0.24516641  0.83589204    -0.81000
C401        C  0.70985069  0.22449449  0.84428162     1.00000
C402        C  0.80890129  0.28070490  0.83932700     1.06000
O403        O  0.70191831  0.24537206  0.81190755    -0.76600
C404        C  0.76251954  0.11894497  0.76736946     1.04300
C405        C  0.83207981  0.44687683  0.51790333     0.81500
N406        N  0.83645522  0.42544453  0.98058732    -0.76800
C407        C  0.84077393  0.38423415  0.98089018     0.84000
N408        N  0.83972889  0.36466473  0.51845256    -0.76700
C409        C  0.83624454  0.38520051  0.55499853     0.84100
N410        N  0.83228440  0.42619776  0.55438405    -0.78400
C411        C  0.72058496  0.94827373  0.76724680     0.81500
N412        N  0.72118356  0.92737580  0.80353126    -0.76800
C413        C  0.72014684  0.88625412  0.80372950     0.84000
N414        N  0.71884412  0.86577230  0.76694189    -0.76700
C415        C  0.71830023  0.88593938  0.73021628     0.84100
N416        N  0.71956119  0.92723401  0.73058095    -0.78400
Fe417      Fe  0.77194160  0.69595041  0.56655211     1.65800
Fe418      Fe  0.78051371  0.69579692  0.96149355     1.73200
Fe419      Fe  0.81946455  0.77410496  0.01807162     1.54400
O420        O  0.78695103  0.79571479  0.56785907    -0.80400
O421        O  0.84120075  0.69855303  0.94557438    -0.78700
O422        O  0.74294290  0.74823463  0.58648831    -0.82900
O423        O  0.82382809  0.71231373  0.59924123    -0.77700
O424        O  0.77805148  0.80067510  0.97767093    -0.79500
O425        O  0.79073554  0.63765994  0.98267630    -0.82300
C426        C  0.85668531  0.73169812  0.59293342     0.98500
C427        C  0.75697191  0.78403614  0.58947116     1.05900
O428        O  0.79060404  0.72190475  0.01545053    -1.11200
O429        O  0.71907980  0.69094644  0.97265762    -0.73700
O430        O  0.71706478  0.67742711  0.54053083    -0.77200
O431        O  0.86358350  0.75064337  0.55935059    -0.77800
C432        C  0.69941181  0.68093353  0.00484267     0.97400
O433        O  0.79905324  0.64086376  0.55202641    -0.75800
O434        O  0.76834661  0.75009705  0.93233646    -0.81000
C435        C  0.86434243  0.72936005  0.94582085     1.00000
C436        C  0.76499005  0.78716880  0.94289954     1.06000
O437        O  0.85769591  0.76023912  0.96873293    -0.76600
C438        C  0.79988805  0.62096389  0.51800672     1.04300
C439        C  0.02983335  0.71440077  0.76593760     0.81500
N440        N  0.01281753  0.71747831  0.80442289    -0.76800
C441        C  0.97310250  0.72859852  0.80814111     0.84000
N442        N  0.95032936  0.73563305  0.77356899    -0.76700
C443        C  0.96642731  0.73177078  0.73497055     0.84100
N444        N  0.00635516  0.72126411  0.73146791    -0.78400
C445        C  0.33562983  0.89744634  0.73199680     0.81500
N446        N  0.33947118  0.91910588  0.76810720    -0.76800
C447        C  0.34277639  0.96031397  0.76760974     0.84000
N448        N  0.34175643  0.97974038  0.73043800    -0.76700
C449        C  0.33781784  0.95864034  0.69416553     0.84100
N450        N  0.33451059  0.91760795  0.69524252    -0.78400
Fe451      Fe  0.28019552  0.14918165  0.53604129     1.65800
Fe452      Fe  0.29161495  0.15144600  0.93185968     1.73200
Fe453      Fe  0.24433096  0.07157315  0.97788336     1.54400
O454        O  0.28225689  0.04437913  0.51917742    -0.80400
O455        O  0.24113246  0.13465440  0.89753661    -0.78700
O456        O  0.29287382  0.09473698  0.56463504    -0.82900
O457        O  0.21920736  0.14505298  0.55059367    -0.77700
O458        O  0.28053855  0.05097959  0.93002830    -0.79500
O459        O  0.26250843  0.20562907  0.94698064    -0.82300
C460        C  0.19566371  0.11462175  0.54812660     0.98500
C461        C  0.29528179  0.05760008  0.55407981     1.05900
O462        O  0.27215610  0.12426805  0.98209335    -1.11200
O463        O  0.34518994  0.17105594  0.95944740    -0.73700
O464        O  0.34195206  0.15561057  0.52681428    -0.77200
O465        O  0.20242891  0.08464005  0.52407094    -0.77800
C466        C  0.36162426  0.16884393  0.99530522     0.97400
O467        O  0.26881974  0.20710450  0.51523111    -0.75800
O468        O  0.32243175  0.10022392  0.91086337    -0.81000
C469        C  0.20898326  0.11379981  0.90220459     1.00000
C470        C  0.30998778  0.06374445  0.90837472     1.06000
O471        O  0.20219983  0.09325541  0.93483213    -0.76600
C472        C  0.26054380  0.22411681  0.48086279     1.04300
C473        C  0.03464763  0.13331245  0.73072067     0.81500
N474        N  0.05054476  0.12850751  0.69194687    -0.76800
C475        C  0.08996616  0.11660319  0.68733796     0.84000
N476        N  0.11366041  0.11041345  0.72151496    -0.76700
C477        C  0.09870310  0.11599363  0.76034432     0.84100
N478        N  0.05904577  0.12726416  0.76469907    -0.78400
C479        C  0.22204762  0.39734667  0.98570971     0.81500
N480        N  0.21805899  0.41753570  0.52180526    -0.76800
C481        C  0.21556572  0.45883199  0.52267996     0.84000
N482        N  0.21804013  0.47975966  0.98669096    -0.76700
C483        C  0.22214918  0.45986005  0.94983645     0.84100
N484        N  0.22433655  0.41868809  0.94969243    -0.78400
Fe485      Fe  0.28116891  0.65093322  0.78906055     1.65800
Fe486      Fe  0.26912880  0.64986083  0.68421796     1.73200
Fe487      Fe  0.31830998  0.57154237  0.73283602     1.54400
O488        O  0.35927930  0.58647085  0.78006343    -0.80400
O489        O  0.23938989  0.59781091  0.66464756    -0.78700
O490        O  0.34223461  0.64786538  0.80387149    -0.82900
O491        O  0.26987916  0.59737161  0.81973259    -0.77700
O492        O  0.35961637  0.59276738  0.68951763    -0.79500
O493        O  0.21511549  0.66928977  0.71102489    -0.82300
C494        C  0.26748084  0.55988131  0.81063427     0.98500
C495        C  0.36609961  0.61749126  0.80276006     1.05900
O496        O  0.28949311  0.62405446  0.73527397    -1.11200
O497        O  0.29702960  0.70484727  0.69804090    -0.73700
O498        O  0.29119172  0.70836504  0.76669846    -0.77200
O499        O  0.27973732  0.54563355  0.77599989    -0.77800
C500        C  0.29934545  0.72458550  0.73210432     0.97400
O501        O  0.21936366  0.65663296  0.77894057    -0.74600
O502        O  0.32002422  0.63327241  0.65066334    -0.81000
C503        C  0.25167285  0.56117404  0.66320288     1.00000
C504        C  0.35280000  0.61327433  0.65671899     1.06000
O505        O  0.28151904  0.54860767  0.68529283    -0.76600
C506        C  0.19923317  0.66754613  0.74693788     1.04300
C507        C  0.52755031  0.64074660  0.98690074     0.81500
N508        N  0.50400619  0.63400167  0.52260842    -0.76800
C509        C  0.46418072  0.62295361  0.51796694     0.84000
N510        N  0.44847312  0.61823046  0.97707504    -0.76700
C511        C  0.47195775  0.62386174  0.94318519     0.84100
N512        N  0.51133270  0.63541047  0.94809991    -0.78400
C513        C  0.42267900  0.65254317  0.84147061     0.24900
C514        C  0.40096871  0.61679231  0.83201492    -0.23200
C515        C  0.40816990  0.58168378  0.85580745     0.19800
C516        C  0.43373839  0.58337241  0.89076727     0.24800
C517        C  0.45334282  0.61974031  0.90170862    -0.23200
C518        C  0.44918068  0.65383793  0.87591147     0.19700
F519        F  0.46786330  0.68933177  0.88618009    -0.13100
F520        F  0.41660981  0.68669746  0.81864961    -0.15500
F521        F  0.43754267  0.55013967  0.91540936    -0.15500
F522        F  0.38731866  0.54686298  0.84775902    -0.13100
C523        C  0.36841450  0.60704642  0.58173291     0.24900
C524        C  0.38269356  0.61279941  0.62264255    -0.23200
C525        C  0.42453392  0.61934179  0.62973031     0.19800
C526        C  0.45144062  0.62201763  0.59600538     0.24800
C527        C  0.43690139  0.61757241  0.55457719    -0.23200
C528        C  0.39497083  0.60913201  0.54821266     0.19700
F529        F  0.37890247  0.60344507  0.50947103    -0.13100
F530        F  0.32831621  0.59910291  0.57410012    -0.15500
F531        F  0.49144674  0.62964736  0.60411839    -0.15500
F532        F  0.43905233  0.62484512  0.66910775    -0.13100
C533        C  0.22582457  0.54786612  0.87452281     0.24900
C534        C  0.25101475  0.53228759  0.84276606    -0.23200
C535        C  0.26311400  0.49123741  0.84447158     0.19800
C536        C  0.25208821  0.46697712  0.87823994     0.24800
C537        C  0.22877575  0.48329534  0.91111417    -0.23200
C538        C  0.21480883  0.52368207  0.90815539     0.19700
F539        F  0.19090976  0.54021428  0.93822146    -0.13100
F540        F  0.21237867  0.58696189  0.87362086    -0.15500
F541        F  0.26651741  0.42827620  0.87983957    -0.15500
F542        F  0.28786781  0.47515518  0.81489788    -0.13100
C543        C  0.23215994  0.46552117  0.59943753     0.24900
C544        C  0.21514228  0.48197920  0.56272004    -0.23200
C545        C  0.20268079  0.52301948  0.56315198     0.19800
C546        C  0.21151956  0.54811849  0.59732402     0.24800
C547        C  0.23291836  0.53278228  0.63218185    -0.23200
C548        C  0.24102732  0.49066189  0.63374407     0.19700
F549        F  0.25949851  0.47397905  0.66765833    -0.13100
F550        F  0.24312101  0.42576109  0.60131762    -0.15500
F551        F  0.20177074  0.58816956  0.59462994    -0.15500
F552        F  0.18357019  0.53960639  0.52956082    -0.13100
C553        C  0.22633128  0.33029916  0.94709033     0.24900
C554        C  0.22886388  0.35210404  0.48420982    -0.23200
C555        C  0.23648205  0.33046829  0.52121110     0.19800
C556        C  0.24565928  0.28900658  0.52006726     0.24800
C557        C  0.24761123  0.26763940  0.48181467    -0.23200
C558        C  0.23563452  0.28871660  0.94592710     0.19700
F559        F  0.23449925  0.26916292  0.90856808    -0.13100
F560        F  0.21618838  0.34885781  0.91075137    -0.15500
F561        F  0.25357746  0.27021722  0.55684455    -0.15500
F562        F  0.23648509  0.34942487  0.55886940    -0.13100
C563        C  0.13678861  0.14662086  0.58556147     0.24900
C564        C  0.16128740  0.11237757  0.57728348    -0.23200
C565        C  0.15693829  0.07738549  0.60175494     0.19800
C566        C  0.13123737  0.07790390  0.63620060     0.24800
C567        C  0.10865977  0.11295469  0.64603137    -0.23200
C568        C  0.11011054  0.14668140  0.61944808     0.19700
F569        F  0.08848692  0.18087204  0.62840367    -0.13100
F570        F  0.14007220  0.18053698  0.56196237    -0.15500
F571        F  0.13007807  0.04492101  0.66140004    -0.15500
F572        F  0.18051312  0.04401528  0.59475645    -0.13100
C573        C  0.19529458  0.11478567  0.82604737     0.24900
C574        C  0.17996033  0.11243925  0.86674927    -0.23200
C575        C  0.13765351  0.10869075  0.87240252     0.19800
C576        C  0.11102095  0.10912683  0.83790575     0.24800
C577        C  0.12638879  0.11284345  0.79713529    -0.23200
C578        C  0.16900726  0.11505046  0.79178476     0.19700
F579        F  0.18571772  0.11859878  0.75341518    -0.13100
F580        F  0.23615891  0.11635065  0.81914411    -0.15500
F581        F  0.07028359  0.10584511  0.84455743    -0.15500
F582        F  0.12200138  0.10572016  0.91127546    -0.13100
C583        C  0.29633616  0.98958260  0.58852949     0.24900
C584        C  0.31223650  0.02902400  0.58506119    -0.23200
C585        C  0.34080704  0.04280925  0.61493671     0.19800
C586        C  0.35080141  0.01893489  0.64934133     0.24800
C587        C  0.33259916  0.98070257  0.65449567    -0.23200
C588        C  0.30641676  0.96559563  0.62296669     0.19700
F589        F  0.28799105  0.92893734  0.62690045    -0.13100
F590        F  0.26849469  0.97542333  0.56043124    -0.15500
F591        F  0.37756266  0.03373105  0.67817843    -0.15500
F592        F  0.35818533  0.08005019  0.61152734    -0.13100
C593        C  0.35620813  0.02503105  0.80774844     0.24900
C594        C  0.34236025  0.98447866  0.80698483    -0.23200
C595        C  0.32439814  0.96877065  0.84313370     0.19800
C596        C  0.31735949  0.99376951  0.87767287     0.24800
C597        C  0.32755777  0.03538552  0.87690003    -0.23200
C598        C  0.34894273  0.05018572  0.84229599     0.19700
F599        F  0.36051076  0.08971116  0.84047976    -0.13100
F600        F  0.37546766  0.04099630  0.77437115    -0.15500
F601        F  0.29837034  0.97745984  0.91106505    -0.15500
F602        F  0.31063670  0.92996648  0.84427194    -0.13100
C603        C  0.33409408  0.82900497  0.69610638     0.24900
C604        C  0.32923521  0.85267526  0.73257837    -0.23200
C605        C  0.31621617  0.83329670  0.76905924     0.19800
C606        C  0.30727420  0.79187708  0.76891149     0.24800
C607        C  0.31108963  0.76830370  0.73221473    -0.23200
C608        C  0.32514602  0.78740624  0.69593456     0.19700
F609        F  0.33021675  0.76601376  0.66004473    -0.13100
F610        F  0.34758255  0.84594936  0.66032939    -0.15500
F611        F  0.29370679  0.77534245  0.80487367    -0.15500
F612        F  0.31051758  0.85450180  0.80492435    -0.13100
C613        C  0.09232526  0.67713085  0.79072868     0.24900
C614        C  0.07319931  0.70265978  0.76139759    -0.23200
C615        C  0.09581520  0.71650603  0.72724158     0.19800
C616        C  0.13659013  0.70493847  0.72243325     0.24800
C617        C  0.15575464  0.67922497  0.75168374    -0.23200
C618        C  0.13310547  0.66548275  0.78591530     0.19700
F619        F  0.15007261  0.63999007  0.81439664    -0.13100
F620        F  0.07127267  0.66239803  0.82357856    -0.15500
F621        F  0.15753170  0.71990449  0.68960800    -0.15500
F622        F  0.07885697  0.74224174  0.69897465    -0.13100
C623        C  0.63488719  0.67592260  0.96196602     0.24900
C624        C  0.65515490  0.67164665  0.00063944    -0.23200
C625        C  0.63435527  0.65343769  0.53466979     0.19800
C626        C  0.59286809  0.64414939  0.53084602     0.24800
C627        C  0.57116107  0.65226882  0.99198542    -0.23200
C628        C  0.59355511  0.66645578  0.95772483     0.19700
F629        F  0.57562573  0.67159283  0.91978873    -0.13100
F630        F  0.65487369  0.68927377  0.92781183    -0.15500
F631        F  0.57410095  0.62653691  0.56363084    -0.15500
F632        F  0.65363140  0.64470867  0.57119805    -0.13100
C633        C  0.87064159  0.73869038  0.66833261     0.24900
C634        C  0.88602052  0.73417715  0.62789184    -0.23200
C635        C  0.92842991  0.73245236  0.62212630     0.19800
C636        C  0.95499451  0.73281273  0.65671204     0.24800
C637        C  0.93938555  0.73544759  0.69762345    -0.23200
C638        C  0.89678164  0.73947326  0.70264095     0.19700
F639        F  0.87967082  0.74335298  0.74084755    -0.13100
F640        F  0.82985506  0.74281155  0.67478531    -0.15500
F641        F  0.99578099  0.73006944  0.64997986    -0.15500
F642        F  0.94407050  0.72898629  0.58323281    -0.13100
C643        C  0.92003238  0.69502035  0.90534580     0.24900
C644        C  0.89846756  0.73060165  0.91608470    -0.23200
C645        C  0.90634245  0.76675890  0.89438534     0.19800
C646        C  0.93301692  0.76658611  0.86069530     0.24800
C647        C  0.95304514  0.73065436  0.84883273    -0.23200
C648        C  0.94750629  0.69517852  0.87214407     0.19700
F649        F  0.96609147  0.65995971  0.86064028    -0.13100
F650        F  0.91333398  0.65979125  0.92595950    -0.15500
F651        F  0.93769839  0.80105626  0.83819308    -0.15500
F652        F  0.88559270  0.80149097  0.90340275    -0.13100
C653        C  0.70673336  0.82249955  0.68821426     0.24900
C654        C  0.72138450  0.86261554  0.69063672    -0.23200
C655        C  0.74267388  0.87840775  0.65650013     0.19800
C656        C  0.75185509  0.85365259  0.62221798     0.24800
C657        C  0.73998388  0.81244653  0.62124260    -0.23200
C658        C  0.71584863  0.79772349  0.65398352     0.19700
F659        F  0.70297441  0.75855376  0.65437008    -0.13100
F660        F  0.68457655  0.80664445  0.71971521    -0.15500
F661        F  0.77402457  0.86976453  0.59085521    -0.15500
F662        F  0.75724906  0.91698538  0.65734796    -0.13100
C663        C  0.71016622  0.82407572  0.84649405     0.24900
C664        C  0.72540927  0.86374568  0.84309188    -0.23200
C665        C  0.74895185  0.88005440  0.87614768     0.19800
C666        C  0.75952782  0.85603256  0.91038860     0.24800
C667        C  0.74693903  0.81528060  0.91205642    -0.23200
C668        C  0.72067606  0.80014456  0.88065448     0.19700
F669        F  0.70615990  0.76157545  0.88225638    -0.13100
F670        F  0.68595749  0.80792718  0.81611158    -0.15500
F671        F  0.78467776  0.87178587  0.94019084    -0.15500
F672        F  0.76454189  0.91814303  0.87399971    -0.13100
C673        C  0.81040532  0.55485148  0.55570567     0.24900
C674        C  0.81055435  0.57696579  0.51833839    -0.23200
C675        C  0.81557665  0.55553184  0.97945370     0.19800
C676        C  0.82342459  0.51369702  0.97926815     0.24800
C677        C  0.82570486  0.49183783  0.51804840    -0.23200
C678        C  0.81785930  0.51300611  0.55561673     0.19700
F679        F  0.81645220  0.49339663  0.59264946    -0.13100
F680        F  0.80174326  0.57333049  0.59253541    -0.15500
F681        F  0.82804975  0.49479435  0.94190372    -0.15500
F682        F  0.81982513  0.57592001  0.44392121    -0.13100
C683        C  0.92165884  0.14971130  0.70868036     0.24900
C684        C  0.90798530  0.16588342  0.74677782    -0.23200
C685        C  0.93631299  0.17163389  0.77947363     0.19800
C686        C  0.97743479  0.16153363  0.77417027     0.24800
C687        C  0.99118353  0.14510594  0.73607350    -0.23200
C688        C  0.96270358  0.13940373  0.70338175     0.19700
F689        F  0.97412291  0.12277340  0.66645398    -0.13100
F690        F  0.89505819  0.14256189  0.67677412    -0.15500
F691        F  0.00376024  0.16857754  0.80633092    -0.15500
F692        F  0.92444480  0.18783691  0.81646692    -0.13100
C693        C  0.74426151  0.05514463  0.80561903     0.24900
C694        C  0.74724054  0.07652318  0.76794962    -0.23200
C695        C  0.73627122  0.05649234  0.73051350     0.19800
C696        C  0.72576242  0.01542213  0.73044889     0.24800
C697        C  0.72580953  0.99318220  0.76780137    -0.23200
C698        C  0.73358689  0.01412519  0.80560482     0.19700
F699        F  0.73211459  0.99496028  0.84288248    -0.13100
F700        F  0.75282152  0.07340804  0.84272127    -0.15500
F701        F  0.71619256  0.99752717  0.69341969    -0.15500
F702        F  0.73603705  0.07637265  0.69355118    -0.13100
C703        C  0.83913525  0.29898680  0.63210552     0.24900
C704        C  0.81167981  0.31294935  0.66260992    -0.23200
C705        C  0.79716049  0.35316435  0.66046641     0.19800
C706        C  0.80717847  0.37773109  0.62668747     0.24800
C707        C  0.83191948  0.36251462  0.59439623    -0.23200
C708        C  0.84913807  0.32350286  0.59840574     0.19700
F709        F  0.87491445  0.30856566  0.56911123    -0.13100
F710        F  0.85544318  0.26101437  0.63414861    -0.15500
F711        F  0.79001286  0.41525966  0.62421362    -0.15500
F712        F  0.77071876  0.36779364  0.68928856    -0.13100
C713        C  0.82497511  0.37617079  0.90401680     0.24900
C714        C  0.84067616  0.35993927  0.94147014    -0.23200
C715        C  0.85237622  0.31859072  0.94193302     0.19800
C716        C  0.84497612  0.29344300  0.90743606     0.24800
C717        C  0.82576426  0.30891396  0.87143220    -0.23200
C718        C  0.81754707  0.35093357  0.86948325     0.19700
F719        F  0.80057791  0.36744578  0.83468860    -0.13100
F720        F  0.81422218  0.41594241  0.90134423    -0.15500
F721        F  0.85384732  0.25322677  0.91073108    -0.15500
F722        F  0.86950050  0.30173883  0.97646259    -0.13100
C723        C  0.61402176  0.18859579  0.62380940     0.24900
C724        C  0.61072217  0.22223362  0.59729305    -0.23200
C725        C  0.63079303  0.25849550  0.60772908     0.19800
C726        C  0.65577739  0.26054948  0.64312296     0.24800
C727        C  0.66190570  0.22590801  0.66785720    -0.23200
C728        C  0.63996518  0.19022795  0.65867472     0.19700
F729        F  0.64524451  0.15645723  0.68227348    -0.13100
F730        F  0.59485084  0.15323454  0.61402757    -0.15500
F731        F  0.67709951  0.29515390  0.65083475    -0.15500
F732        F  0.62783732  0.29126722  0.58234543    -0.13100
C733        C  0.61351582  0.23766146  0.90924779     0.24900
C734        C  0.62500893  0.21754412  0.94607769    -0.23200
C735        C  0.66289634  0.19766512  0.94809134     0.19800
C736        C  0.68950864  0.19882243  0.91459712     0.24800
C737        C  0.67921853  0.22054284  0.87804340    -0.23200
C738        C  0.64048835  0.23944762  0.87557206     0.19700
F739        F  0.62886386  0.26028475  0.84103894    -0.13100
F740        F  0.57687159  0.25696389  0.90646209    -0.15500
F741        F  0.72572450  0.17888377  0.91867502    -0.15500
F742        F  0.67416969  0.17649253  0.98257269    -0.13100
C743        C  0.42367350  0.18306995  0.03980839     0.24900
C744        C  0.40533789  0.17998715  0.00005266    -0.23200
C745        C  0.43168154  0.17644514  0.46507713     0.19800
C746        C  0.47305296  0.18572776  0.46934225     0.24800
C747        C  0.48932795  0.19930266  0.00873174    -0.23200
C748        C  0.46503317  0.19253060  0.04411349     0.19700
F749        F  0.48104526  0.19463068  0.08323661    -0.13100
F750        F  0.40170897  0.17706665  0.07490991    -0.15500
F751        F  0.49628950  0.18510795  0.43452197    -0.15500
F752        F  0.41704765  0.16702778  0.42649166    -0.13100
loop_ 
_geom_bond_atom_site_label_1 
_geom_bond_atom_site_label_2 
_geom_bond_distance 
_geom_bond_site_symmetry_2 
_ccdc_geom_bond_type 
C1            N2   1.362       .  A
C1          N382   1.360       .  A
C1          C371   1.488       .  S
N2            C3   1.357       .  A
C3          N380   1.355       .  A
C3          C358   1.475       .  S
N4            C5   1.354       .  A
N4          C379   1.355   1_554  A
C5            N6   1.354       .  A
C5          C348   1.463       .  S
N6          C377   1.359       .  A
Fe7          O23   2.056       .  S
Fe7          O13   2.046       .  S
Fe7          O20   2.049       .  S
Fe7          O12   2.061       .  S
Fe7          O18   1.958       .  S
Fe8          O11   2.056       .  S
Fe8          O15   2.062       .  S
Fe8          O19   2.067       .  S
Fe8          O24   2.060       .  S
Fe8          O18   1.956       .  S
Fe9          O27   2.078       .  S
Fe9          O14   2.073       .  S
Fe9          O21   2.076       .  S
Fe9          O10   2.071       .  S
Fe9          O18   1.966       .  S
O10          C17   1.273       .  A
O11          C25   1.269       .  A
O12          C17   1.271       .  A
O13          C16   1.264       .  A
O14          C26   1.270       .  A
O15          C28   1.269       .  A
C16         C351   1.472       .  S
C16          O21   1.269       .  A
C17         C328   1.481       .  S
O19          C22   1.269       .  A
O20          C22   1.266       .  A
C22         C308   1.477       .  S
O23          C28   1.267       .  A
O24          C26   1.268       .  A
C25         C361   1.491       .  S
C25          O27   1.274       .  A
C26         C341   1.486       .  S
C28         C318   1.485       .  S
C29          N34   1.358       .  A
C29         N406   1.364   1_554  A
C29         C301   1.495       .  S
N30          C31   1.362       .  A
N30         C405   1.363       .  A
C31         N408   1.357       .  A
C31         C338   1.491       .  S
N32          C33   1.356       .  A
N32         C407   1.357   1_554  A
C33          N34   1.355       .  A
C33         C331   1.481       .  S
C35          N36   1.356       .  A
C35          N40   1.363       .  A
C35         C321   1.489       .  S
N36          C37   1.354       .  A
C37          N38   1.357       .  A
C37         C288   1.478       .  S
N38          C39   1.357       .  A
C39          N40   1.360       .  A
C39         C278   1.486       .  S
Fe41         O57   2.072       .  S
Fe41         O47   2.059       .  S
Fe41         O54   2.067       .  S
Fe41         O46   2.067       .  S
Fe41        O428   1.955       .  S
Fe42         O45   2.059       .  S
Fe42         O49   2.060       .  S
Fe42         O53   2.056       .  S
Fe42         O58   2.059       .  S
Fe42         O52   1.953       .  S
Fe43         O61   2.073       .  S
Fe43         O48   2.062       .  S
Fe43        O431   2.067       .  S
Fe43        O420   2.070       .  S
Fe43         O52   1.963       .  S
O44        Fe419   2.071       .  S
O44          C51   1.269       .  A
O45          C59   1.268       .  A
O46          C51   1.269       .  A
O47          C50   1.271       .  A
O48          C60   1.270       .  A
O49         C438   1.267       .  A
C50         C258   1.472       .  S
C50          O55   1.271       .  A
C51         C281   1.492       .  S
O52        Fe417   1.952       .  S
O53          C56   1.269       .  A
O54         C432   1.270       .  A
O55        Fe419   2.067       .  S
C56         C248   1.487       .  S
C56         O430   1.269       .  A
O57          C62   1.271       .  A
O58          C60   1.269       .  A
C59         C268   1.476       .  S
C59          O61   1.270       .  A
C60         C291   1.476       .  S
C62         C298   1.492       .  S
C62         O425   1.267   1_554  A
C63          N64   1.364       .  A
C63          N68   1.361       .  A
C63         C238   1.488       .  S
N64          C65   1.353   1_455  A
C65          N66   1.350       .  A
C65         C271   1.468       .  S
N66          C67   1.357       .  A
C67          N68   1.356   1_655  A
C67         C261   1.489       .  S
C69          N70   1.361       .  A
C69          N74   1.357       .  A
C69         C228   1.491       .  S
N70          C71   1.360       .  A
C71          N72   1.358       .  A
C71         C218   1.488       .  S
N72          C73   1.358       .  A
C73          N74   1.356       .  A
C73         C211   1.479       .  S
Fe75         O91   2.054       .  S
Fe75         O81   2.060       .  S
Fe75         O88   2.056       .  S
Fe75         O80   2.059       .  S
Fe75        O462   1.957   1_554  S
Fe76         O79   2.052       .  S
Fe76         O83   2.075       .  S
Fe76         O87   2.060       .  S
Fe76         O92   2.071       .  S
Fe76         O86   1.960       .  S
Fe77         O95   2.070       .  S
Fe77         O82   2.064       .  S
Fe77        O465   2.073       .  S
Fe77        O454   2.064       .  S
Fe77         O86   1.966       .  S
O78        Fe453   2.066   1_554  S
O78          C85   1.271       .  A
O79          C93   1.269       .  A
O80          C85   1.269       .  A
O81          C84   1.267       .  A
O82          C94   1.269       .  A
O83         C472   1.271       .  A
C84         C188   1.469       .  S
C84          O89   1.268       .  A
C85         C208   1.477       .  S
O86        Fe451   1.957       .  S
O87          C90   1.268       .  A
O88         C466   1.268   1_554  A
O89        Fe453   2.067   1_554  S
C90         C368   1.482       .  S
C90         O464   1.268       .  A
O91          C96   1.266   1_554  A
O92          C94   1.270       .  A
C93         C198   1.478       .  S
C93          O95   1.272       .  A
C94         C221   1.490       .  S
C96         C181   1.492       .  S
C96         O459   1.271       .  A
C97          N98   1.362       .  A
C97         N102   1.361       .  A
C97         C311   1.482   1_455  S
N98          C99   1.356       .  A
C99         N100   1.353       .  A
C99         C191   1.468       .  S
N100        C101   1.353       .  A
C101        N102   1.356       .  A
C101        C201   1.481       .  S
C103        N108   1.359       .  A
C103        N480   1.364       .  A
C103        C554   1.493       .  S
N104        C105   1.361       .  A
N104        C479   1.364   1_554  A
C105        N482   1.357   1_554  A
C105        C168   1.491       .  S
N106        C107   1.356       .  A
N106        C481   1.357       .  A
C107        N108   1.356       .  A
C107        C161   1.484       .  S
Fe109       O125   2.057       .  S
Fe109       O115   2.058       .  S
Fe109       O122   2.055       .  S
Fe109       O114   2.052       .  S
Fe109       O120   1.957       .  S
Fe110       O113   2.064       .  S
Fe110       O117   2.062       .  S
Fe110       O121   2.069       .  S
Fe110       O126   2.051       .  S
Fe110       O120   1.957       .  S
Fe111       O129   2.077       .  S
Fe111       O116   2.079       .  S
Fe111       O123   2.075       .  S
Fe111       O112   2.075       .  S
Fe111       O120   1.969       .  S
O112        C119   1.270       .  A
O113        C127   1.270       .  A
O114        C119   1.266       .  A
O115        C118   1.269       .  A
O116        C128   1.273       .  A
O117        C130   1.269       .  A
C118        C158   1.484       .  S
C118        O123   1.272       .  A
C119        C138   1.471       .  S
O121        C124   1.269       .  A
O122        C124   1.266       .  A
C124        C231   1.490       .  S
O125        C130   1.268       .  A
O126        C128   1.268       .  A
C127        C171   1.490       .  S
C127        O129   1.271       .  A
C128        C148   1.482       .  S
C130        C241   1.487       .  S
C131        N136   1.359       .  A
C131        N508   1.365       .  A
C131        C251   1.485       .  S
N132        C133   1.359       .  A
N132        C507   1.363   1_554  A
C133        N510   1.355   1_554  A
C133        C151   1.486       .  S
N134        C135   1.352       .  A
N134        C509   1.355       .  A
C135        N136   1.352       .  A
C135        C141   1.465       .  S
C137        C138   1.407       .  A
C137        C142   1.400       .  A
C137        F144   1.358       .  S
C138        C139   1.406       .  A
C139        C140   1.394       .  A
C139        F146   1.358       .  S
C140        C141   1.402       .  A
C140        F145   1.358       .  S
C141        C142   1.404       .  A
C142        F143   1.358       .  S
C147        C148   1.408       .  A
C147        C152   1.390       .  A
C147        F154   1.359       .  S
C148        C149   1.407       .  A
C149        C150   1.405       .  A
C149        F156   1.357       .  S
C150        C151   1.412       .  A
C150        F155   1.357       .  S
C151        C152   1.409       .  A
C152        F153   1.358       .  S
C157        C158   1.410       .  A
C157        C162   1.395       .  A
C157        F164   1.359       .  S
C158        C159   1.407       .  A
C159        C160   1.401       .  A
C159        F166   1.358       .  S
C160        C161   1.411       .  A
C160        F165   1.358       .  S
C161        C162   1.407       .  A
C162        F163   1.358       .  S
C167        C168   1.410       .  A
C167        C172   1.402       .  A
C167        F174   1.357       .  S
C168        C169   1.409       .  A
C169        C170   1.397       .  A
C169        F176   1.358       .  S
C170        C171   1.409       .  A
C170        F175   1.358       .  S
C171        C172   1.411       .  A
C172        F173   1.358       .  S
C177        C182   1.401       .  A
C177        C554   1.414       .  A
C177        F184   1.358       .  S
C178        C479   1.492       .  S
C178        C179   1.408   1_556  A
C178        C553   1.413       .  A
C179        C180   1.396       .  A
C179        F186   1.357       .  S
C180        C181   1.413   1_554  A
C180        F185   1.358       .  S
C181        C558   1.408       .  A
C182        C557   1.408       .  A
C182        F183   1.358       .  S
C187        C188   1.405       .  A
C187        C192   1.401       .  A
C187        F194   1.358       .  S
C188        C189   1.405       .  A
C189        C190   1.394       .  A
C189        F196   1.359       .  S
C190        C191   1.404       .  A
C190        F195   1.358       .  S
C191        C192   1.405       .  A
C192        F193   1.358       .  S
C197        C198   1.408       .  A
C197        C202   1.389       .  A
C197        F204   1.359       .  S
C198        C199   1.406       .  A
C199        C200   1.402       .  A
C199        F206   1.357       .  S
C200        C201   1.410       .  A
C200        F205   1.357       .  S
C201        C202   1.408       .  A
C202        F203   1.358       .  S
C207        C208   1.405   1_565  A
C207        C212   1.398       .  A
C207        F214   1.358       .  S
C208        C209   1.408       .  A
C209        C210   1.396       .  A
C209        F216   1.358       .  S
C210        C211   1.406   1_545  A
C210        F215   1.358       .  S
C211        C212   1.410       .  A
C212        F213   1.358       .  S
C217        C218   1.409   1_545  A
C217        C222   1.401       .  A
C217        F224   1.358       .  S
C218        C219   1.408       .  A
C219        C220   1.397       .  A
C219        F226   1.357       .  S
C220        C221   1.411   1_565  A
C220        F225   1.358       .  S
C221        C222   1.410       .  A
C222        F223   1.358       .  S
C227        C228   1.413       .  A
C227        C232   1.400       .  A
C227        F234   1.358       .  S
C228        C229   1.409       .  A
C229        C230   1.395       .  A
C229        F236   1.357       .  S
C230        C231   1.412       .  A
C230        F235   1.358       .  S
C231        C232   1.409       .  A
C232        F233   1.358       .  S
C237        C238   1.411       .  A
C237        C242   1.397       .  A
C237        F244   1.358       .  S
C238        C239   1.411       .  A
C239        C240   1.394       .  A
C239        F246   1.356       .  S
C240        C241   1.410       .  A
C240        F245   1.359       .  S
C241        C242   1.410       .  A
C242        F243   1.358       .  S
C247        C248   1.409       .  A
C247        C252   1.396       .  A
C247        F254   1.358       .  S
C248        C625   1.411       .  A
C249        C250   1.397       .  A
C249        C624   1.411       .  A
C249        F256   1.358       .  S
C250        C627   1.409   1_554  A
C250        F255   1.357       .  S
C251        C252   1.411       .  A
C251        C626   1.408       .  A
C252        F253   1.358       .  S
C257        C258   1.403       .  A
C257        C262   1.388       .  A
C257        F264   1.359       .  S
C258        C259   1.403       .  A
C259        C260   1.404       .  A
C259        F266   1.358       .  S
C260        C261   1.416       .  A
C260        F265   1.356       .  S
C261        C262   1.411       .  A
C262        F263   1.358       .  S
C267        C268   1.407       .  A
C267        C272   1.401       .  A
C267        F274   1.358       .  S
C268        C269   1.408       .  A
C269        C270   1.396       .  A
C269        F276   1.358       .  S
C270        C271   1.401       .  A
C270        F275   1.358       .  S
C271        C272   1.403       .  A
C272        F273   1.358       .  S
C277        C278   1.408       .  A
C277        C282   1.399       .  A
C277        F284   1.358       .  S
C278        C279   1.407       .  A
C279        C280   1.400       .  A
C279        F286   1.358       .  S
C280        C281   1.413       .  A
C280        F285   1.358       .  S
C281        C282   1.410       .  A
C282        F283   1.358       .  S
C287        C288   1.405       .  A
C287        C292   1.394       .  A
C287        F294   1.358       .  S
C288        C289   1.411       .  A
C289        C290   1.397       .  A
C289        F296   1.357       .  S
C290        C291   1.406       .  A
C290        F295   1.358       .  S
C291        C292   1.409       .  A
C292        F293   1.358       .  S
C297        C298   1.407       .  A
C297        C302   1.398       .  A
C297        F304   1.358       .  S
C298        C675   1.413   1_554  A
C299        C300   1.398       .  A
C299        C674   1.411       .  A
C299        F682   1.358       .  S
C300        C677   1.410       .  A
C300        F305   1.357       .  S
C301        C302   1.415       .  A
C301        C676   1.410   1_554  A
C302        F303   1.357       .  S
F306        C675   1.358       .  S
C307        C308   1.407       .  A
C307        C312   1.396       .  A
C307        F314   1.358       .  S
C308        C309   1.406       .  A
C309        C310   1.396       .  A
C309        F316   1.358       .  S
C310        C311   1.411       .  A
C310        F315   1.358   1_655  S
C311        C312   1.409       .  A
C312        F313   1.358       .  S
C317        C318   1.406       .  A
C317        C322   1.396       .  A
C317        F324   1.358       .  S
C318        C319   1.411       .  A
C319        C320   1.397       .  A
C319        F326   1.358       .  S
C320        C321   1.408   1_545  A
C320        F325   1.358   1_545  S
C321        C322   1.414   1_565  A
C322        F323   1.357   1_545  S
C327        C328   1.409       .  A
C327        C332   1.396       .  A
C327        F334   1.359       .  S
C328        C329   1.406       .  A
C329        C330   1.399       .  A
C329        F336   1.358       .  S
C330        C331   1.410       .  A
C330        F335   1.357       .  S
C331        C332   1.406       .  A
C332        F333   1.358       .  S
C337        C338   1.410       .  A
C337        C342   1.401       .  A
C337        F344   1.357       .  S
C338        C339   1.411       .  A
C339        C340   1.398       .  A
C339        F346   1.358       .  S
C340        C341   1.408       .  A
C340        F345   1.358       .  S
C341        C342   1.409       .  A
C342        F343   1.358       .  S
C347        C348   1.403       .  A
C347        C352   1.399       .  A
C347        F354   1.358       .  S
C348        C349   1.401       .  A
C349        C350   1.396       .  A
C349        F356   1.358       .  S
C350        C351   1.407       .  A
C350        F355   1.358       .  S
C351        C352   1.408       .  A
C352        F353   1.358       .  S
C357        C358   1.406       .  A
C357        C362   1.404       .  A
C357        F364   1.358       .  S
C358        C359   1.402       .  A
C359        C360   1.391       .  A
C359        F366   1.359       .  S
C360        C361   1.415       .  A
C360        F365   1.358       .  S
C361        C362   1.412       .  A
C362        F363   1.357       .  S
C367        C368   1.407       .  A
C367        C372   1.397       .  A
C367        F374   1.358       .  S
C368        C745   1.409       .  A
C369        C370   1.395       .  A
C369        C744   1.410   1_556  A
C369        F376   1.358       .  S
C370        C747   1.410   1_556  A
C370        F375   1.358       .  S
C371        C372   1.413       .  A
C371        C746   1.410       .  A
C372        F373   1.358       .  S
C377        N378   1.362   1_554  A
C377        C747   1.487       .  S
N378        C379   1.356       .  A
C379        C734   1.475       .  S
N380        C381   1.354       .  A
C381        N382   1.354       .  A
C381        C724   1.464       .  S
Fe383       O399   2.054       .  S
Fe383       O389   2.048       .  S
Fe383       O396   2.051       .  S
Fe383       O388   2.060       .  S
Fe383       O394   1.958       .  S
Fe384       O387   2.054       .  S
Fe384       O391   2.062       .  S
Fe384       O395   2.068       .  S
Fe384       O400   2.062       .  S
Fe384       O394   1.956       .  S
Fe385       O403   2.077       .  S
Fe385       O390   2.072       .  S
Fe385       O397   2.075       .  S
Fe385       O386   2.069       .  S
Fe385       O394   1.966       .  S
O386        C393   1.273       .  A
O387        C401   1.269       .  A
O388        C393   1.271       .  A
O389        C392   1.264       .  A
O390        C402   1.270       .  A
O391        C404   1.269       .  A
C392        C727   1.470       .  S
C392        O397   1.269       .  A
C393        C704   1.480       .  S
O395        C398   1.269       .  A
O396        C398   1.266       .  A
C398        C684   1.479       .  S
O399        C404   1.266       .  A
O400        C402   1.269       .  A
C401        C737   1.490       .  S
C401        O403   1.273       .  A
C402        C717   1.487       .  S
C404        C694   1.485       .  S
C405        N410   1.358       .  A
C405        C677   1.493       .  S
N406        C407   1.363       .  A
C407        C714   1.493       .  S
N408        C409   1.356       .  A
C409        N410   1.355       .  A
C409        C707   1.480       .  S
C411        N412   1.356       .  A
C411        N416   1.362       .  A
C411        C697   1.488       .  S
N412        C413   1.354       .  A
C413        N414   1.357       .  A
C413        C664   1.477       .  S
N414        C415   1.356       .  A
C415        N416   1.360       .  A
C415        C654   1.484       .  S
Fe417       O433   2.068       .  S
Fe417       O423   2.060       .  S
Fe417       O430   2.067       .  S
Fe417       O422   2.063       .  S
Fe418       O421   2.058       .  S
Fe418       O425   2.059       .  S
Fe418       O429   2.053       .  S
Fe418       O434   2.058       .  S
Fe418       O428   1.955   1_556  S
Fe419       O437   2.075   1_554  S
Fe419       O424   2.063   1_554  S
Fe419       O428   1.965       .  S
O420        C427   1.269       .  A
O421        C435   1.268       .  A
O422        C427   1.269       .  A
O423        C426   1.271       .  A
O424        C436   1.270       .  A
C426        C634   1.472       .  S
C426        O431   1.271       .  A
C427        C657   1.490       .  S
O429        C432   1.268   1_556  A
C432        C624   1.487       .  S
O433        C438   1.270       .  A
O434        C436   1.269       .  A
C435        C644   1.477       .  S
C435        O437   1.270       .  A
C436        C667   1.477       .  S
C438        C674   1.488       .  S
C439        N440   1.363       .  A
C439        N444   1.361       .  A
C439        C614   1.478       .  S
N440        C441   1.355   1_455  A
C441        N442   1.352       .  A
C441        C647   1.468       .  S
N442        C443   1.356       .  A
C443        N444   1.356   1_655  A
C443        C637   1.489       .  S
C445        N446   1.362       .  A
C445        N450   1.357       .  A
C445        C604   1.489       .  S
N446        C447   1.361       .  A
C447        N448   1.357       .  A
C447        C594   1.489       .  S
N448        C449   1.357       .  A
C449        N450   1.356       .  A
C449        C587   1.478       .  S
Fe451       O467   2.055       .  S
Fe451       O457   2.060       .  S
Fe451       O464   2.058       .  S
Fe451       O456   2.057       .  S
Fe452       O455   2.053       .  S
Fe452       O459   2.075       .  S
Fe452       O463   2.061       .  S
Fe452       O468   2.073       .  S
Fe452       O462   1.961       .  S
Fe453       O471   2.071       .  S
Fe453       O458   2.059       .  S
Fe453       O462   1.965       .  S
O454        C461   1.270       .  A
O455        C469   1.269       .  A
O456        C461   1.269       .  A
O457        C460   1.268       .  A
O458        C470   1.268       .  A
C460        C564   1.473       .  S
C460        O465   1.269       .  A
C461        C584   1.476       .  S
O463        C466   1.268       .  A
C466        C744   1.485   1_556  S
O467        C472   1.267       .  A
O468        C470   1.271       .  A
C469        C574   1.476       .  S
C469        O471   1.272       .  A
C470        C597   1.489       .  S
C472        C557   1.492       .  S
C473        N474   1.362       .  A
C473        N478   1.361       .  A
C473        C687   1.485   1_455  S
N474        C475   1.356       .  A
C475        N476   1.354       .  A
C475        C567   1.470       .  S
N476        C477   1.355       .  A
C477        N478   1.357       .  A
C477        C577   1.486       .  S
C479        N484   1.359       .  A
N480        C481   1.361       .  A
C481        C544   1.490       .  S
N482        C483   1.356       .  A
C483        N484   1.356       .  A
C483        C537   1.485       .  S
Fe485       O501   2.054       .  S
Fe485       O491   2.060       .  S
Fe485       O498   2.054       .  S
Fe485       O490   2.053       .  S
Fe485       O496   1.956       .  S
Fe486       O489   2.065       .  S
Fe486       O493   2.071       .  S
Fe486       O497   2.074       .  S
Fe486       O502   2.062       .  S
Fe486       O496   1.960       .  S
Fe487       O505   2.076       .  S
Fe487       O492   2.075       .  S
Fe487       O499   2.073       .  S
Fe487       O488   2.073       .  S
Fe487       O496   1.967       .  S
O488        C495   1.270       .  A
O489        C503   1.270       .  A
O490        C495   1.267       .  A
O491        C494   1.269       .  A
O492        C504   1.271       .  A
O493        C506   1.271       .  A
C494        C534   1.485       .  S
C494        O499   1.272       .  A
C495        C514   1.471       .  S
O497        C500   1.270       .  A
O498        C500   1.266       .  A
C500        C607   1.490       .  S
O501        C506   1.268       .  A
O502        C504   1.270       .  A
C503        C547   1.491       .  S
C503        O505   1.271       .  A
C504        C524   1.475       .  S
C506        C617   1.482       .  S
C507        N512   1.360       .  A
C507        C627   1.486       .  S
N508        C509   1.361       .  A
C509        C527   1.494       .  S
N510        C511   1.352       .  A
C511        N512   1.353       .  A
C511        C517   1.465       .  S
C513        C514   1.407       .  A
C513        C518   1.399       .  A
C513        F520   1.358       .  S
C514        C515   1.407       .  A
C515        C516   1.395       .  A
C515        F522   1.358       .  S
C516        C517   1.401       .  A
C516        F521   1.358       .  S
C517        C518   1.404       .  A
C518        F519   1.358       .  S
C523        C524   1.402       .  A
C523        C528   1.392       .  A
C523        F530   1.359       .  S
C524        C525   1.404       .  A
C525        C526   1.405       .  A
C525        F532   1.358       .  S
C526        C527   1.415       .  A
C526        F531   1.357       .  S
C527        C528   1.414       .  A
C528        F529   1.358       .  S
C533        C534   1.410       .  A
C533        C538   1.396       .  A
C533        F540   1.358       .  S
C534        C535   1.407       .  A
C535        C536   1.401       .  A
C535        F542   1.358       .  S
C536        C537   1.411       .  A
C536        F541   1.358       .  S
C537        C538   1.407       .  A
C538        F539   1.358       .  S
C543        C544   1.409       .  A
C543        C548   1.402       .  A
C543        F550   1.357       .  S
C544        C545   1.409       .  A
C545        C546   1.398       .  A
C545        F552   1.358       .  S
C546        C547   1.409       .  A
C546        F551   1.358       .  S
C547        C548   1.411       .  A
C548        F549   1.358       .  S
C553        C558   1.401       .  A
C553        F560   1.358       .  S
C554        C555   1.408       .  A
C555        C556   1.396       .  A
C555        F562   1.357       .  S
C556        C557   1.413       .  A
C556        F561   1.358       .  S
C558        F559   1.358       .  S
C563        C564   1.406       .  A
C563        C568   1.401       .  A
C563        F570   1.358       .  S
C564        C565   1.406       .  A
C565        C566   1.396       .  A
C565        F572   1.359       .  S
C566        C567   1.403       .  A
C566        F571   1.358       .  S
C567        C568   1.405       .  A
C568        F569   1.358       .  S
C573        C574   1.407       .  A
C573        C578   1.390       .  A
C573        F580   1.359       .  S
C574        C575   1.405       .  A
C575        C576   1.403       .  A
C575        F582   1.358       .  S
C576        C577   1.413       .  A
C576        F581   1.357       .  S
C577        C578   1.410       .  A
C578        F579   1.358       .  S
C583        C584   1.406   1_565  A
C583        C588   1.398       .  A
C583        F590   1.358       .  S
C584        C585   1.408       .  A
C585        C586   1.395       .  A
C585        F592   1.359       .  S
C586        C587   1.405   1_545  A
C586        F591   1.358       .  S
C587        C588   1.410       .  A
C588        F589   1.358       .  S
C593        C594   1.411   1_545  A
C593        C598   1.401       .  A
C593        F600   1.358       .  S
C594        C595   1.408       .  A
C595        C596   1.397       .  A
C595        F602   1.356       .  S
C596        C597   1.411   1_565  A
C596        F601   1.358       .  S
C597        C598   1.409       .  A
C598        F599   1.358       .  S
C603        C604   1.412       .  A
C603        C608   1.401       .  A
C603        F610   1.358       .  S
C604        C605   1.407       .  A
C605        C606   1.395       .  A
C605        F612   1.357       .  S
C606        C607   1.413       .  A
C606        F611   1.358       .  S
C607        C608   1.409       .  A
C608        F609   1.358       .  S
C613        C614   1.406       .  A
C613        C618   1.397       .  A
C613        F620   1.358       .  S
C614        C615   1.408       .  A
C615        C616   1.396       .  A
C615        F622   1.358       .  S
C616        C617   1.409       .  A
C616        F621   1.358       .  S
C617        C618   1.409       .  A
C618        F619   1.358       .  S
C623        C624   1.410   1_556  A
C623        C628   1.395       .  A
C623        F630   1.358       .  S
C625        C626   1.397       .  A
C625        F632   1.358       .  S
C626        F631   1.358       .  S
C627        C628   1.410       .  A
C628        F629   1.358       .  S
C633        C634   1.404       .  A
C633        C638   1.388       .  A
C633        F640   1.359       .  S
C634        C635   1.403       .  A
C635        C636   1.404       .  A
C635        F642   1.358       .  S
C636        C637   1.416       .  A
C636        F641   1.357       .  S
C637        C638   1.411       .  A
C638        F639   1.358       .  S
C643        C644   1.408       .  A
C643        C648   1.401       .  A
C643        F650   1.358       .  S
C644        C645   1.408       .  A
C645        C646   1.396       .  A
C645        F652   1.358       .  S
C646        C647   1.402       .  A
C646        F651   1.358       .  S
C647        C648   1.404       .  A
C648        F649   1.358       .  S
C653        C654   1.408       .  A
C653        C658   1.398       .  A
C653        F660   1.358       .  S
C654        C655   1.407       .  A
C655        C656   1.399       .  A
C655        F662   1.358       .  S
C656        C657   1.412       .  A
C656        F661   1.358       .  S
C657        C658   1.410       .  A
C658        F659   1.358       .  S
C663        C664   1.405       .  A
C663        C668   1.393       .  A
C663        F670   1.358       .  S
C664        C665   1.410       .  A
C665        C666   1.398       .  A
C665        F672   1.357       .  S
C666        C667   1.406       .  A
C666        F671   1.358       .  S
C667        C668   1.409       .  A
C668        F669   1.358       .  S
C673        C674   1.407       .  A
C673        C678   1.397       .  A
C673        F680   1.358       .  S
C675        C676   1.399       .  A
C676        F681   1.357       .  S
C677        C678   1.414       .  A
C678        F679   1.357       .  S
C683        C684   1.407       .  A
C683        C688   1.396       .  A
C683        F690   1.358       .  S
C684        C685   1.406       .  A
C685        C686   1.397       .  A
C685        F692   1.358       .  S
C686        C687   1.411       .  A
C686        F691   1.358   1_655  S
C687        C688   1.409       .  A
C688        F689   1.358       .  S
C693        C694   1.407       .  A
C693        C698   1.396       .  A
C693        F700   1.358       .  S
C694        C695   1.411       .  A
C695        C696   1.396       .  A
C695        F702   1.358       .  S
C696        C697   1.408   1_545  A
C696        F701   1.358   1_545  S
C697        C698   1.413   1_565  A
C698        F699   1.357   1_545  S
C703        C704   1.409       .  A
C703        C708   1.395       .  A
C703        F710   1.359       .  S
C704        C705   1.406       .  A
C705        C706   1.398       .  A
C705        F712   1.358       .  S
C706        C707   1.410       .  A
C706        F711   1.357       .  S
C707        C708   1.406       .  A
C708        F709   1.358       .  S
C713        C714   1.410       .  A
C713        C718   1.401       .  A
C713        F720   1.357       .  S
C714        C715   1.412       .  A
C715        C716   1.398       .  A
C715        F722   1.358       .  S
C716        C717   1.407       .  A
C716        F721   1.358       .  S
C717        C718   1.409       .  A
C718        F719   1.358       .  S
C723        C724   1.403       .  A
C723        C728   1.399       .  A
C723        F730   1.358       .  S
C724        C725   1.402       .  A
C725        C726   1.395       .  A
C725        F732   1.358       .  S
C726        C727   1.406       .  A
C726        F731   1.358       .  S
C727        C728   1.407       .  A
C728        F729   1.358       .  S
C733        C734   1.406       .  A
C733        C738   1.404       .  A
C733        F740   1.358       .  S
C734        C735   1.401       .  A
C735        C736   1.391       .  A
C735        F742   1.359       .  S
C736        C737   1.415       .  A
C736        F741   1.358       .  S
C737        C738   1.412       .  A
C738        F739   1.357       .  S
C743        C744   1.408       .  A
C743        C748   1.396       .  A
C743        F750   1.358       .  S
C745        C746   1.395       .  A
C745        F752   1.358       .  S
C746        F751   1.358       .  S
C747        C748   1.412       .  A
C748        F749   1.358       .  S
