geometry optimzed in LAMMPS
_audit_creation_date              2020-11-30 
_audit_creation_method            'lammps2cif' 
_symmetry_space_group_name_H-M    'P1' 
_symmetry_Int_Tables_number       1 
_symmetry_cell_setting            triclinic 
loop_ 
_symmetry_equiv_pos_as_xyz 
  x,y,z 
_cell_length_a                    47.41404555 
_cell_length_b                    46.66889762607538 
_cell_length_c                    47.2994731603178 
_cell_angle_alpha                 89.93815590935644 
_cell_angle_beta                  90.11951025082384 
_cell_angle_gamma                 89.90740302940797 
loop_ 
_atom_site_label 
_atom_site_type_symbol 
_atom_site_fract_x 
_atom_site_fract_y 
_atom_site_fract_z 
_atom_site_charge 
O1          O  0.47455284  0.02859242  0.21307411    -0.89000
C2          C  0.45195232  0.01771331  0.29517128     0.87000
Mg3        Mg  0.48165677  0.49172100  0.18455443     1.58100
O4          O  0.02464736  0.03497577  0.28291963    -0.88700
O5          O  0.49836573  0.06527730  0.22866107    -0.76100
C6          C  0.06327074  0.39950390  0.24949131     0.92100
O7          O  0.43565554  0.47997038  0.23836254    -0.75900
O8          O  0.04274013  0.40079460  0.23222922    -0.83400
Mg9        Mg  0.43591713  0.02977199  0.23669341     1.58000
C10         C  0.08547824  0.98908264  0.32733578     0.92000
O11         O  0.43040852  0.07939750  0.23581942    -0.81700
H12         H  0.05492315  0.06103025  0.26880807    -0.07000
C13         C  0.00890473  0.44928357  0.29375239     0.86900
O14         O  0.03042802  0.49368715  0.19028363    -0.76200
O15         O  0.46044126  0.03199773  0.27489810    -0.88900
O16         O  0.06374145  0.00467364  0.33068561    -0.81700
C17         C  0.49921743  0.06637414  0.34696987     0.92100
C18         C  0.43650599  0.10044053  0.25200650     0.92000
Mg19       Mg  0.06269335  0.46946595  0.26606928     1.58000
O20         O  0.06860115  0.41983243  0.26681411    -0.81700
O21         O  0.06358949  0.01872396  0.26395653    -0.75900
O22         O  0.48705271  0.07447218  0.32430232    -0.81700
O23         O  0.41003075  0.02734307  0.19586851    -0.83400
O24         O  0.01222625  0.42434758  0.17792594    -0.81800
C25         C  0.04795354  0.03927378  0.27206025     0.86400
O26         O  0.03848171  0.46722317  0.22765575    -0.88900
O27         O  0.02350198  0.47065380  0.28931238    -0.89000
O28         O  0.00041662  0.43358446  0.27361524    -0.76100
Mg29       Mg  0.49117132  0.06607789  0.27669669     1.58000
O30         O  0.01278434  0.04305192  0.34851694    -0.83400
H31         H  0.49554742  0.05476797  0.18711295    -0.07200
O32         O  0.47481481  0.46344636  0.22003740    -0.88700
H33         H  0.44468621  0.43759358  0.23481910    -0.07000
H34         H  0.06967508  0.48414941  0.20473000    -0.07200
C35         C  0.45150783  0.45929204  0.23096873     0.86400
C36         C  0.48943744  0.04975804  0.20856172     0.87000
C37         C  0.04719641  0.48137126  0.20739059     0.87000
H38         H  0.00270682  0.44420889  0.31516946    -0.07200
O39         O  0.46888976  0.00537520  0.31209871    -0.76200
Mg40       Mg  0.00788544  0.43303972  0.22563773     1.58000
H41         H  0.42951456  0.01482789  0.29799230    -0.07200
C42         C  0.41388929  0.50757884  0.17408616     0.92000
O43         O  0.48690199  0.45433541  0.15478648    -0.83400
C44         C  0.00011919  0.43261100  0.15528163     0.92100
O45         O  0.45659220  0.09907816  0.26986360    -0.83400
Mg46       Mg  0.01752070  0.00594239  0.31785886     1.58200
O47         O  0.43535993  0.49143356  0.17179544    -0.81700
O48         O  0.08854096  0.47231537  0.30681205    -0.83400
O49         O  0.99511862  0.27538903  0.04840391    -0.89000
C50         C  0.43497003  0.26368884  0.48786273     0.87000
Mg51       Mg  0.03302642  0.29923175  0.03910811     1.58100
O52         O  0.47578491  0.20226770  0.00092215    -0.88700
O53         O  0.48304897  0.23083315  0.06124326    -0.76100
C54         C  0.08175125  0.24619388  0.41896169     0.92100
O55         O  0.47835553  0.31882736  0.99999995    -0.75900
O56         O  0.07909340  0.26940091  0.43275375    -0.83400
Mg57       Mg  0.45743833  0.29528994  0.03716752     1.58000
C58         C  0.00556658  0.15481918  0.43217610     0.92000
O59         O  0.43019870  0.27786571  0.07400529    -0.81700
H60         H  0.98983831  0.17196828  0.02805934    -0.07000
C61         C  0.49835972  0.24922260  0.43277016     0.86900
O62         O  0.05763511  0.25750590  0.03096861    -0.76200
O63         O  0.44688478  0.25925072  0.01063498    -0.88900
O64         O  0.48209659  0.16245679  0.44305677    -0.81700
C65         C  0.40378483  0.18345738  0.48690214     0.92100
C66         C  0.41407044  0.25653553  0.07854209     0.92000
Mg67       Mg  0.03905343  0.20822101  0.46134104     1.58000
O68         O  0.06577948  0.22484766  0.42388530    -0.81700
O69         O  0.01832662  0.18567227  0.49910014    -0.75900
O70         O  0.40812233  0.20119973  0.00721942    -0.81700
O71         O  0.46963990  0.33222425  0.06558350    -0.83400
O72         O  0.08668634  0.30434754  0.48851919    -0.81800
C73         C  0.99446156  0.18588805  0.01038968     0.86400
O74         O  0.04898175  0.24518092  0.48664979    -0.88900
O75         O  0.50043367  0.22837418  0.44875215    -0.89000
O76         O  0.01203610  0.27203499  0.43595666    -0.76100
Mg77       Mg  0.44668557  0.21810253  0.03156734     1.58000
O78         O  0.42206912  0.18028795  0.46749436    -0.83400
H79         H  0.01266087  0.25596760  0.08177711    -0.07200
O80         O  0.01955068  0.30183369  0.49624002    -0.88700
H81         H  0.50717125  0.33253819  0.47176889    -0.07000
H82         H  0.07534216  0.22281776  0.01217270    -0.07200
C83         C  0.50257808  0.31803455  0.48898329     0.86400
C84         C  0.99736366  0.25492197  0.06483508     0.87000
C85         C  0.06155421  0.24111414  0.00991042     0.87000
H86         H  0.48297918  0.24869896  0.41586338    -0.07200
O87         O  0.43844047  0.24749725  0.46654346    -0.76200
Mg88       Mg  0.04836291  0.28590492  0.46503802     1.58000
H89         H  0.42171749  0.28243653  0.48586189    -0.07200
C90         C  0.49223080  0.34677117  0.06796043     0.92000
O91         O  0.07282625  0.32470801  0.02885807    -0.83400
C92         C  0.09108768  0.32152780  0.00942122     0.92100
O93         O  0.41605885  0.23386789  0.06389078    -0.83400
Mg94       Mg  0.46215731  0.20523127  0.45752917     1.58200
O95         O  0.01270452  0.34186303  0.05297289    -0.81700
O96         O  0.02794039  0.16966080  0.43476331    -0.83400
O97         O  0.27344005  0.20055255  0.24660198    -0.89000
C98         C  0.25421249  0.24798756  0.31594317     0.87000
Mg99       Mg  0.29968164  0.21653525  0.21325269     1.58100
O100        O  0.19896050  0.24093920  0.26631956    -0.88700
O101        O  0.23125622  0.18269807  0.25264980    -0.76100
C102        C  0.24826248  0.34500712  0.18105130     0.92100
O103        O  0.31163555  0.24757267  0.27775201    -0.75900
O104        O  0.27193288  0.33205447  0.18200158    -0.83400
Mg105      Mg  0.28970943  0.20500583  0.28879396     1.58000
C106        C  0.15317672  0.31534727  0.24498736     0.92000
O107        O  0.27186884  0.16190739  0.30446381    -0.81700
H108        H  0.17249972  0.21656412  0.24388498    -0.07000
C109        C  0.24451134  0.31564933  0.26002186     0.86900
O110        O  0.26100554  0.22869505  0.18651457    -0.76200
O111        O  0.25145205  0.22707441  0.30021886    -0.88900
O112        O  0.15998281  0.29948366  0.26576044    -0.81700
C113        C  0.17243249  0.24413115  0.33660345     0.92100
C114        C  0.25015174  0.15264674  0.31748571     0.92000
Mg115      Mg  0.20945140  0.29347236  0.21119406     1.58000
O116        O  0.22679231  0.33610233  0.19458058    -0.81700
O117        O  0.18753508  0.25105700  0.22257618    -0.75900
O118        O  0.18764879  0.22220509  0.33100634    -0.81700
O119        O  0.33040660  0.18164218  0.27696004    -0.83400
O120        O  0.31102988  0.27732712  0.16983183    -0.81800
C121        C  0.18559580  0.23548951  0.24452674     0.86400
O122        O  0.24783595  0.27148312  0.19996450    -0.88900
O123        O  0.22627464  0.29813045  0.25316960    -0.89000
O124        O  0.26810442  0.31667412  0.24748514    -0.76100
Mg125      Mg  0.21226474  0.20492881  0.29168119     1.58000
O126        O  0.17304043  0.26653207  0.32143215    -0.83400
H127        H  0.25814239  0.16944026  0.22196685    -0.07200
O128        O  0.30052261  0.25799222  0.23394791    -0.88700
H129        H  0.32675880  0.28224623  0.25677972    -0.07000
H130        H  0.22895146  0.25081755  0.16817413    -0.07200
C131        C  0.31370073  0.26330742  0.25590471     0.86400
C132        C  0.25472524  0.18350865  0.23977992     0.87000
C133        C  0.24539941  0.25067977  0.18403237     0.87000
H134        H  0.24061041  0.32982743  0.27763237    -0.07200
O135        O  0.23892306  0.27016330  0.31327054    -0.76200
Mg136      Mg  0.28686522  0.29416118  0.20871897     1.58000
H137        H  0.27072056  0.24778457  0.33174423    -0.07200
C138        C  0.34707958  0.18429720  0.25603868     0.92000
O139        O  0.32668493  0.23291829  0.17775368    -0.83400
C140        C  0.32639174  0.25589388  0.16331383     0.92100
O141        O  0.22705895  0.16668853  0.31783997    -0.83400
Mg142      Mg  0.20033356  0.28238592  0.28653177     1.58200
O143        O  0.34038627  0.19937355  0.23451934    -0.81700
O144        O  0.16906266  0.31745322  0.22337526    -0.83400
O145        O  0.23449336  0.49204063  0.44850215    -0.89000
C146        C  0.24168214  0.06618619  0.99481644     0.87000
Mg147      Mg  0.20795021  0.45692084  0.46158795     1.58100
O148        O  0.30145264  0.01984269  0.49881323    -0.88700
O149        O  0.27922067  0.00016698  0.43790078    -0.76100
C150        C  0.24260007  0.43330896  0.09530847     0.92100
O151        O  0.18737371  0.02148825  0.48605753    -0.75900
O152        O  0.22129051  0.43345030  0.07891002    -0.83400
Mg153      Mg  0.21570028  0.03288354  0.44832983     1.58000
C154        C  0.33639737  0.50325443  0.07927404     0.92000
O155        O  0.23836876  0.04933854  0.40847206    -0.81700
H156        H  0.33284949  0.49954689  0.48009895    -0.07000
C157        C  0.24433337  0.01423387  0.06381407     0.86900
O158        O  0.24604229  0.43308996  0.48046867    -0.76200
O159        O  0.24858388  0.04782802  0.47604406    -0.88900
O160        O  0.33034250  0.02532250  0.06427800    -0.81700
C161        C  0.32018303  0.09480204  0.99991607     0.92100
C162        C  0.25978562  0.06482353  0.40301280     0.92000
Mg163      Mg  0.28657652  0.46551905  0.04937617     1.58000
O164        O  0.26494038  0.44699019  0.08900882    -0.81700
O165        O  0.31405876  0.47765092  0.01131831    -0.75900
O166        O  0.30724113  0.08464020  0.47825757    -0.81700
O167        O  0.18198793  0.01679147  0.41907185    -0.83400
O168        O  0.19281848  0.41527477  0.02107456    -0.81800
C169        C  0.31683757  0.49933063  0.49633561     0.86400
O170        O  0.25274939  0.45137607  0.02247339    -0.88900
O171        O  0.26633247  0.00806939  0.05122849    -0.89000
O172        O  0.22319770  0.49934744  0.06117293    -0.76100
Mg173      Mg  0.29087023  0.04224508  0.46046598     1.58000
O174        O  0.32011224  0.08130098  0.02342936    -0.83400
H175        H  0.25655949  0.46717919  0.42219242    -0.07200
O176        O  0.20008861  0.48030175  0.00065529    -0.88700
H177        H  0.16779892  0.00102454  0.01838298    -0.07000
H178        H  0.27622832  0.41879992  0.50751200    -0.07200
C179        C  0.18397805  0.00091481  0.00229658     0.86400
C180        C  0.25625673  0.48600208  0.43548004     0.87000
C181        C  0.25896768  0.43351117  0.50398818     0.87000
H182        H  0.24385635  0.03313208  0.07699030    -0.07200
O183        O  0.25444231  0.06682544  0.01843464    -0.76200
Mg184      Mg  0.21059657  0.45760555  0.03875050     1.58000
H185        H  0.22430970  0.08074708  0.99111308    -0.07200
C186        C  0.16660966  0.99451769  0.41869153     0.92000
O187        O  0.18017861  0.41981717  0.47612877    -0.83400
C188        C  0.17971467  0.40589729  0.49932365     0.92100
O189        O  0.28018285  0.06663152  0.42035907    -0.83400
Mg190      Mg  0.29254706  0.04353433  0.03816636     1.58200
O191        O  0.16947723  0.47534641  0.43721345    -0.81700
O192        O  0.32140171  0.48070800  0.07801992    -0.83400
C193        C  0.24474172  0.36991965  0.16193617    -0.06800
C194        C  0.26500300  0.39176594  0.16164660    -0.17900
C195        C  0.26357095  0.41429464  0.14194482     0.10400
C196        C  0.24215327  0.41435321  0.12084932    -0.06700
C197        C  0.22142455  0.39282318  0.12197900    -0.17900
C198        C  0.22233710  0.37101085  0.14220646     0.10400
S199        S  0.28960994  0.44218245  0.14525743    -0.32900
S200        S  0.19602651  0.34329652  0.13965291    -0.32900
H201        H  0.18372797  0.35052753  0.16574590     0.28500
H202        H  0.27047571  0.46449162  0.13930867     0.28400
H203        H  0.28202672  0.39133363  0.17696736     0.19000
H204        H  0.20487891  0.39206517  0.10616350     0.19000
C205        C  0.25303307  0.12607914  0.33475583    -0.06800
C206        C  0.27967649  0.11963108  0.34631610    -0.17900
C207        C  0.28317070  0.09847207  0.36719865     0.10400
C208        C  0.25930875  0.08315510  0.37704170    -0.06700
C209        C  0.23314547  0.08796953  0.36360208    -0.17900
C210        C  0.22981472  0.10889924  0.34260594     0.10400
S211        S  0.31821259  0.09197191  0.38109946    -0.32900
S212        S  0.19529784  0.11260101  0.32692763    -0.32900
H213        H  0.20542804  0.11939108  0.29979234     0.28500
H214        H  0.33267564  0.11205605  0.36435496     0.28400
H215        H  0.29770252  0.13228273  0.34002508     0.19000
H216        H  0.21468059  0.07609130  0.37017624     0.19000
C217        C  0.37840016  0.16449150  0.48799454    -0.06800
C218        C  0.36519160  0.16098243  0.01429044    -0.17900
C219        C  0.34475878  0.13973451  0.01847732     0.10400
C220        C  0.33778702  0.12098647  0.99614302    -0.06700
C221        C  0.34934846  0.12590613  0.46919573    -0.17900
C222        C  0.36927837  0.14771938  0.46479616     0.10400
S223        S  0.32837374  0.13786460  0.05277666    -0.32900
S224        S  0.38270129  0.15352788  0.42946990    -0.32900
H225        H  0.36438689  0.13462745  0.41535668     0.28500
H226        H  0.30167823  0.12997519  0.04234232     0.28400
H227        H  0.37109220  0.17416300  0.03219010     0.19000
H228        H  0.34373170  0.11211920  0.45167903     0.19000
C229        C  0.16113810  0.38030591  0.50226671    -0.06800
C230        C  0.14829026  0.37588014  0.02888437    -0.17900
C231        C  0.12699957  0.35537040  0.03245898     0.10400
C232        C  0.11703531  0.33972643  0.00881850    -0.06700
C233        C  0.13090665  0.34325354  0.48245545    -0.17900
C234        C  0.15257707  0.36335052  0.47904771     0.10400
S235        S  0.11342718  0.35069482  0.06773020    -0.32900
S236        S  0.16831284  0.36615976  0.44448257    -0.32900
H237        H  0.19568801  0.37158500  0.45468936     0.28500
H238        H  0.11164530  0.32067247  0.06566018     0.28400
H239        H  0.15461059  0.38850928  0.04702767     0.19000
H240        H  0.12386981  0.33156812  0.46397030     0.19000
C241        C  0.15201218  0.24353166  0.36032067    -0.06800
C242        C  0.13647523  0.21847100  0.36541039    -0.17900
C243        C  0.11329983  0.21829583  0.38404073     0.10400
C244        C  0.10509482  0.24414653  0.39773823    -0.06700
C245        C  0.12135692  0.26890377  0.39293991    -0.17900
C246        C  0.14477874  0.26872896  0.37515302     0.10400
S247        S  0.09493982  0.18481142  0.38975147    -0.32900
S248        S  0.16513307  0.30132490  0.37317080    -0.32900
H249        H  0.19126057  0.28747554  0.36953196     0.28500
H250        H  0.11100083  0.16781544  0.37123877     0.28400
H251        H  0.14199818  0.19917215  0.35399290     0.19000
H252        H  0.11627072  0.28876123  0.40364218     0.19000
C253        C  0.34587136  0.25812659  0.13920696    -0.06800
C254        C  0.36539008  0.28066596  0.13883923    -0.17900
C255        C  0.38813876  0.28076902  0.11993845     0.10400
C256        C  0.39127016  0.25799513  0.10027545    -0.06700
C257        C  0.37063632  0.23621316  0.10003500    -0.17900
C258        C  0.34810144  0.23615815  0.11899306     0.10400
S259        S  0.41273231  0.30995743  0.12319234    -0.32900
S260        S  0.32253539  0.20770257  0.11602112    -0.32900
H261        H  0.29957554  0.22370515  0.12631391     0.28500
H262        H  0.43642686  0.29184126  0.12502440     0.28400
H263        H  0.36384046  0.29753060  0.15451953     0.19000
H264        H  0.37174229  0.21899413  0.08472301     0.19000
C265        C  0.37391091  0.16745893  0.25534201    -0.06800
C266        C  0.38381295  0.15762194  0.22899122    -0.17900
C267        C  0.40563963  0.13736115  0.22703000     0.10400
C268        C  0.41795811  0.12617899  0.25192367    -0.06700
C269        C  0.40967314  0.13765330  0.27811291    -0.17900
C270        C  0.38812584  0.15819624  0.28009175     0.10400
S271        S  0.41662153  0.12645517  0.19217852    -0.32900
S272        S  0.37976637  0.17146973  0.31486414    -0.32900
H273        H  0.37351094  0.19946693  0.30568837     0.28500
H274        H  0.44481617  0.12083336  0.19973324     0.28400
H275        H  0.37369886  0.16481771  0.20968039     0.19000
H276        H  0.41924132  0.12967259  0.29741432     0.19000
C277        C  0.08284269  0.37462860  0.24815245    -0.06800
C278        C  0.09414652  0.36352332  0.27326239    -0.17900
C279        C  0.11552107  0.34270895  0.27296301     0.10400
C280        C  0.12700807  0.33321599  0.24678635    -0.06700
C281        C  0.11514639  0.34397578  0.22167601    -0.17900
C282        C  0.09316045  0.36408703  0.22205055     0.10400
S283        S  0.12847972  0.33115840  0.30694473    -0.32900
S284        S  0.08134401  0.37779202  0.18843333    -0.32900
H285        H  0.05385384  0.36703337  0.19189183     0.28500
H286        H  0.12127692  0.30231955  0.30212738     0.28400
H287        H  0.08657455  0.37151571  0.29338326     0.19000
H288        H  0.12355411  0.33724274  0.20144973     0.19000
C289        C  0.10766950  0.99062730  0.34911979    -0.06800
C290        C  0.11882466  0.46628663  0.36076078    -0.17900
C291        C  0.13726051  0.46668738  0.38394725     0.10400
C292        C  0.14494671  0.99217667  0.39598456    -0.06700
C293        C  0.13560072  0.01759826  0.38289519    -0.17900
C294        C  0.11748890  0.01710154  0.35955989     0.10400
S295        S  0.15126609  0.43266878  0.39540805    -0.32900
S296        S  0.10838413  0.05099359  0.34349541    -0.32900
H297        H  0.10615001  0.04036916  0.31575375     0.28500
H298        H  0.17942208  0.44215889  0.39586686     0.28400
H299        H  0.11262456  0.44586667  0.35181555     0.19000
H300        H  0.14288486  0.03818512  0.39053443     0.19000
C301        C  0.39246507  0.50609553  0.15144552    -0.06800
C302        C  0.38538273  0.03257382  0.13757067    -0.17900
C303        C  0.36918937  0.03187081  0.11272632     0.10400
C304        C  0.35828006  0.50496401  0.10203726    -0.06700
C305        C  0.36585988  0.47947509  0.11622595    -0.17900
C306        C  0.38270082  0.47974376  0.14057409     0.10400
S307        S  0.36630384  0.06503421  0.09342539    -0.32900
S308        S  0.39029146  0.44575235  0.15722859    -0.32900
H309        H  0.39193895  0.45654643  0.18493956     0.28500
H310        H  0.37567774  0.05280469  0.06791967     0.28400
H311        H  0.39558569  0.05241636  0.14364512     0.19000
H312        H  0.35811237  0.45902596  0.10869191     0.19000
C313        C  0.49308743  0.37041961  0.08883158    -0.06800
C314        C  0.47876651  0.36604848  0.11442026    -0.17900
C315        C  0.48098394  0.38542685  0.13672179     0.10400
C316        C  0.99735211  0.41207918  0.13181205    -0.06700
C317        C  0.01183279  0.41638585  0.10634276    -0.17900
C318        C  0.00900101  0.39698383  0.08377031     0.10400
S319        S  0.46161917  0.37736978  0.16860001    -0.32900
S320        S  0.02826179  0.40463488  0.05184460    -0.32900
H321        H  0.00746919  0.39375420  0.03352559     0.28500
H322        H  0.45467779  0.40587810  0.17524737     0.28400
H323        H  0.46625359  0.34689397  0.11743563     0.19000
H324        H  0.02545263  0.43486038  0.10406873     0.19000
C325        C  0.50198870  0.08733268  0.37001294    -0.06800
C326        C  0.48712867  0.08389472  0.39539576    -0.17900
C327        C  0.48869861  0.10472508  0.41681713     0.10400
C328        C  0.00610521  0.12973383  0.41291597    -0.06700
C329        C  0.02165575  0.13263674  0.38785891    -0.17900
C330        C  0.02035865  0.11209354  0.36651513     0.10400
S331        S  0.46907434  0.09836517  0.44879728    -0.32900
S332        S  0.04111689  0.11848097  0.33516359    -0.32900
H333        H  0.04755021  0.08956739  0.32982416     0.28500
H334        H  0.48852991  0.11203056  0.46676167     0.28400
H335        H  0.47398951  0.06516718  0.39836885     0.19000
H336        H  0.03429208  0.15163842  0.38435775     0.19000
O337        O  0.47614787  0.02833930  0.71260324    -0.89000
C338        C  0.45235034  0.01866782  0.79467649     0.87000
Mg339      Mg  0.48173343  0.49131507  0.68470763     1.58100
O340        O  0.02464416  0.03523013  0.78271255    -0.88700
O341        O  0.49957512  0.06528946  0.72817635    -0.76100
C342        C  0.06350025  0.39987019  0.75026850     0.92100
O343        O  0.43586661  0.48002935  0.73870236    -0.75900
O344        O  0.04282569  0.40102901  0.73317833    -0.83400
Mg345      Mg  0.43706377  0.02987475  0.73568536     1.58000
C346        C  0.08533804  0.98992522  0.82764433     0.92000
O347        O  0.43150963  0.07969981  0.73439182    -0.81700
H348        H  0.05488294  0.06105208  0.76811306    -0.07000
C349        C  0.00897139  0.44983850  0.79420834     0.86900
O350        O  0.03105800  0.49365064  0.69046493    -0.76200
O351        O  0.46114158  0.03255237  0.77426573    -0.88900
O352        O  0.06347490  0.00534157  0.83080181    -0.81700
C353        C  0.49954519  0.06758267  0.84654009     0.92100
C354        C  0.43733177  0.10066968  0.75082620     0.92000
Mg355      Mg  0.06294431  0.46994314  0.76645585     1.58000
O356        O  0.06906109  0.42037281  0.76730762    -0.81700
O357        O  0.06351957  0.01867970  0.76382569    -0.75900
O358        O  0.48757467  0.07555742  0.82371525    -0.81700
O359        O  0.41155323  0.02644392  0.69451498    -0.83400
O360        O  0.01274872  0.42425681  0.67866365    -0.81800
C361        C  0.04791671  0.03934996  0.77170297     0.86400
O362        O  0.03874187  0.46748666  0.72810355    -0.88900
O363        O  0.02381402  0.47103999  0.78979565    -0.89000
O364        O  0.00035115  0.43422256  0.77406762    -0.76100
Mg365      Mg  0.49195061  0.06654765  0.77613565     1.58000
O366        O  0.01275558  0.04374149  0.84812427    -0.83400
H367        H  0.49735224  0.05438828  0.68669356    -0.07200
O368        O  0.47494070  0.46326183  0.72039617    -0.88700
H369        H  0.44480231  0.43760478  0.73548787    -0.07000
H370        H  0.07016340  0.48406428  0.70525094    -0.07200
C371        C  0.45165943  0.45925375  0.73143887     0.86400
C372        C  0.49099459  0.04953435  0.70810376     0.87000
C373        C  0.04765577  0.48140526  0.70777707     0.87000
H374        H  0.00260992  0.44489158  0.81560639    -0.07200
O375        O  0.46904699  0.00653743  0.81198997    -0.76200
Mg376      Mg  0.00811631  0.43332215  0.72616701     1.58000
H377        H  0.42986675  0.01599084  0.79732594    -0.07200
C378        C  0.41398918  0.50735524  0.67424371     0.92000
O379        O  0.48687381  0.45371247  0.65512167    -0.83400
C380        C  0.00082546  0.43233257  0.65587033     0.92100
O381        O  0.45732996  0.09933318  0.76878845    -0.83400
Mg382      Mg  0.01741327  0.00646677  0.81785689     1.58200
O383        O  0.43537276  0.49106969  0.67204644    -0.81700
O384        O  0.08879573  0.47298101  0.80711914    -0.83400
O385        O  0.99554789  0.27457722  0.54848367    -0.89000
C386        C  0.43505225  0.26403408  0.98780043     0.87000
Mg387      Mg  0.03362421  0.29835721  0.53940325     1.58100
O388        O  0.47554737  0.20175361  0.50068834    -0.88700
O389        O  0.48307558  0.23016392  0.56105864    -0.76100
C390        C  0.08257024  0.24599602  0.91952864     0.92100
O391        O  0.47831302  0.31846067  0.50020583    -0.75900
O392        O  0.07980348  0.26921568  0.93327268    -0.83400
Mg393      Mg  0.45750366  0.29476500  0.53732280     1.58000
C394        C  0.00611086  0.15470523  0.93260441     0.92000
O395        O  0.43028121  0.27727451  0.57413362    -0.81700
H396        H  0.98921892  0.17182271  0.52736486    -0.07000
C397        C  0.49881228  0.24959688  0.93293476     0.86900
O398        O  0.05810645  0.25679710  0.53046088    -0.76200
O399        O  0.44684834  0.25882101  0.51065762    -0.88900
O400        O  0.48257553  0.16288919  0.94339792    -0.81700
C401        C  0.40417517  0.18368344  0.98696528     0.92100
C402        C  0.41407256  0.25598646  0.57856822     0.92000
Mg403      Mg  0.03973781  0.20803003  0.96189739     1.58000
O404        O  0.06667280  0.22458993  0.92448707    -0.81700
O405        O  0.01895249  0.18558276  0.99968962    -0.75900
O406        O  0.40785538  0.20090210  0.50719068    -0.81700
O407        O  0.46982731  0.33158678  0.56586707    -0.83400
O408        O  0.08679014  0.30444304  0.98888086    -0.81800
C409        C  0.99380780  0.18581515  0.50974183     0.86400
O410        O  0.04941273  0.24519444  0.98711646    -0.88900
O411        O  0.50081131  0.22883784  0.94903770    -0.89000
O412        O  0.01281168  0.27161564  0.93571328    -0.76100
Mg413      Mg  0.44657141  0.21760282  0.53146123     1.58000
O414        O  0.42250792  0.18056465  0.96759924    -0.83400
H415        H  0.01303272  0.25427857  0.58138333    -0.07200
O416        O  0.01935072  0.30180637  0.99582112    -0.88700
H417        H  0.50727325  0.33283471  0.97158813    -0.07000
H418        H  0.07552588  0.22248902  0.51075494    -0.07200
C419        C  0.50266469  0.31840904  0.98886310     0.86400
C420        C  0.99760162  0.25377546  0.56453937     0.87000
C421        C  0.06164412  0.24077594  0.50908243     0.87000
H422        H  0.48349949  0.24899170  0.91596949    -0.07200
O423        O  0.43865551  0.24782600  0.96651942    -0.76200
Mg424      Mg  0.04872012  0.28577358  0.96514615     1.58000
H425        H  0.42173700  0.28272776  0.98572866    -0.07200
C426        C  0.49244087  0.34609274  0.56830073     0.92000
O427        O  0.07355944  0.32375206  0.52921445    -0.83400
C428        C  0.09147657  0.32087863  0.50939510     0.92100
O429        O  0.41603483  0.23335223  0.56386929    -0.83400
Mg430      Mg  0.46253698  0.20562506  0.95771292     1.58200
O431        O  0.01365169  0.34072376  0.55431406    -0.81700
O432        O  0.02864304  0.16931253  0.93529449    -0.83400
O433        O  0.27370788  0.20058038  0.74664257    -0.89000
C434        C  0.25491245  0.24811452  0.81607334     0.87000
Mg435      Mg  0.29972688  0.21643648  0.71316072     1.58100
O436        O  0.19932296  0.24150354  0.76674780    -0.88700
O437        O  0.23135467  0.18314599  0.75267005    -0.76100
C438        C  0.24831986  0.34494712  0.68127419     0.92100
O439        O  0.31216379  0.24753526  0.77755292    -0.75900
O440        O  0.27190669  0.33183327  0.68193999    -0.83400
Mg441      Mg  0.29015860  0.20503831  0.78872962     1.58000
C442        C  0.15356224  0.31594695  0.74580254     0.92000
O443        O  0.27213281  0.16204347  0.80445846    -0.81700
H444        H  0.17228013  0.21732805  0.74481044    -0.07000
C445        C  0.24514362  0.31587843  0.76024394     0.86900
O446        O  0.26080719  0.22867894  0.68678231    -0.76200
O447        O  0.25198825  0.22725920  0.80030101    -0.88900
O448        O  0.16062507  0.30034254  0.76668099    -0.81700
C449        C  0.17312886  0.24443518  0.83706709     0.92100
C450        C  0.25032304  0.15281458  0.81735378     0.92000
Mg451      Mg  0.20954027  0.29376750  0.71171321     1.58000
O452        O  0.22696922  0.33626743  0.69510822    -0.81700
O453        O  0.18736808  0.25157728  0.72316957    -0.75900
O454        O  0.18817894  0.22248103  0.83117918    -0.81700
O455        O  0.33083244  0.18154486  0.77669680    -0.83400
O456        O  0.31072624  0.27703458  0.66950664    -0.81800
C457        C  0.18556977  0.23612035  0.74519254     0.86400
O458        O  0.24776797  0.27149321  0.70031333    -0.88900
O459        O  0.22670704  0.29849693  0.75357705    -0.89000
O460        O  0.26864101  0.31669555  0.74750575    -0.76100
Mg461      Mg  0.21262832  0.20534209  0.79180333     1.58000
O462        O  0.17384126  0.26704247  0.82219356    -0.83400
H463        H  0.25811234  0.16964586  0.72198769    -0.07200
O464        O  0.30079068  0.25790219  0.73380440    -0.88700
H465        H  0.32723397  0.28213549  0.75641971    -0.07000
H466        H  0.22852028  0.25074942  0.66879102    -0.07200
C467        C  0.31412488  0.26322714  0.75566490     0.86400
C468        C  0.25483725  0.18371755  0.73982470     0.87000
C469        C  0.24514760  0.25064769  0.68445981     0.87000
H470        H  0.24150576  0.33011582  0.77786486    -0.07200
O471        O  0.23969353  0.27035909  0.81355950    -0.76200
Mg472      Mg  0.28697059  0.29402109  0.70861186     1.58000
H473        H  0.27151154  0.24780063  0.83177688    -0.07200
C474        C  0.34741462  0.18417068  0.75568331     0.92000
O475        O  0.32648156  0.23267014  0.67745471    -0.83400
C476        C  0.32607590  0.25559976  0.66295699     0.92100
O477        O  0.22729000  0.16694562  0.81769406    -0.83400
Mg478      Mg  0.20098656  0.28287593  0.78713184     1.58200
O479        O  0.34058447  0.19922258  0.73418369    -0.81700
O480        O  0.16925936  0.31789096  0.72403327    -0.83400
O481        O  0.23451902  0.49267274  0.94873451    -0.89000
C482        C  0.24200802  0.06499079  0.49477820     0.87000
Mg483      Mg  0.20780360  0.45763026  0.96169325     1.58100
O484        O  0.30090285  0.02075517  0.99922111    -0.88700
O485        O  0.27860995  0.00079769  0.93842477    -0.76100
C486        C  0.24239659  0.43294203  0.59544014     0.92100
O487        O  0.18696845  0.02275815  0.98659244    -0.75900
O488        O  0.22111295  0.43301136  0.57900682    -0.83400
Mg489      Mg  0.21522329  0.03390222  0.94872364     1.58000
C490        C  0.33610874  0.50287022  0.57965281     0.92000
O491        O  0.23786659  0.05006493  0.90875823    -0.81700
H492        H  0.33302975  0.49987892  0.97977375    -0.07000
C493        C  0.24513008  0.01309902  0.56339088     0.86900
O494        O  0.24582736  0.43353567  0.98036653    -0.76200
O495        O  0.24819813  0.04882233  0.97625359    -0.88900
O496        O  0.33131914  0.02412542  0.56349530    -0.81700
C497        C  0.32036384  0.09413093  0.49981133     0.92100
C498        C  0.25940067  0.06531070  0.90312301     0.92000
Mg499      Mg  0.28646608  0.46504446  0.54963871     1.58000
O500        O  0.26475144  0.44656628  0.58912606    -0.81700
O501        O  0.31403502  0.47721813  0.51167036    -0.75900
O502        O  0.30705979  0.08534758  0.97833883    -0.81700
O503        O  0.18140792  0.01791712  0.91960587    -0.83400
O504        O  0.19316224  0.41455678  0.52106593    -0.81800
C505        C  0.31705850  0.49979169  0.99605334     0.86400
O506        O  0.25276002  0.45089290  0.52263543    -0.88900
O507        O  0.26720167  0.00692203  0.55093374    -0.89000
O508        O  0.22282183  0.49879640  0.56121042    -0.76100
Mg509      Mg  0.29044952  0.04295344  0.96072561     1.58000
O510        O  0.32053865  0.08049948  0.52324934    -0.83400
H511        H  0.25646145  0.46773577  0.92239053    -0.07200
O512        O  0.20009003  0.47963920  0.50050023    -0.88700
H513        H  0.16829970  0.99947955  0.51772166    -0.07000
H514        H  0.27602978  0.41914319  0.00733964    -0.07200
C515        C  0.18453947  0.99958112  0.50169691     0.86400
C516        C  0.25623250  0.48658383  0.93564522     0.87000
C517        C  0.25882935  0.43393268  0.00384126     0.87000
H518        H  0.24459756  0.03199346  0.57657045    -0.07200
O519        O  0.25488066  0.06558362  0.51834761    -0.76200
Mg520      Mg  0.21052623  0.45701965  0.53872660     1.58000
H521        H  0.22449874  0.07943034  0.49126090    -0.07200
C522        C  0.16598628  0.99568566  0.91929620     0.92000
O523        O  0.17987032  0.42058551  0.97612507    -0.83400
C524        C  0.17930748  0.40669191  0.99933319     0.92100
O525        O  0.27985518  0.06709883  0.92041335    -0.83400
Mg526      Mg  0.29323311  0.04245368  0.53785559     1.58200
O527        O  0.16934720  0.47632721  0.93760131    -0.81700
O528        O  0.32121707  0.48025321  0.57839146    -0.83400
C529        C  0.24471510  0.36979446  0.66215681    -0.06800
C530        C  0.26494166  0.39165491  0.66180402    -0.17900
C531        C  0.26341888  0.41414443  0.64208951     0.10400
C532        C  0.24195078  0.41411765  0.62104359    -0.06700
C533        C  0.22123689  0.39258414  0.62226026    -0.17900
C534        C  0.22223523  0.37081834  0.64251911     0.10400
S535        S  0.28942335  0.44207817  0.64531989    -0.32900
S536        S  0.19594122  0.34307099  0.64013538    -0.32900
H537        H  0.18377998  0.35030110  0.66629291     0.28500
H538        H  0.27025717  0.46434577  0.63932436     0.28400
H539        H  0.28200518  0.39126119  0.67708198     0.19000
H540        H  0.20465330  0.39177908  0.60648703     0.19000
C541        C  0.25301699  0.12618702  0.83454713    -0.06800
C542        C  0.27964109  0.11947437  0.84599133    -0.17900
C543        C  0.28299334  0.09838494  0.86695442     0.10400
C544        C  0.25900772  0.08341816  0.87700186    -0.06700
C545        C  0.23284438  0.08841712  0.86362211    -0.17900
C546        C  0.22965268  0.10926796  0.84252775     0.10400
S547        S  0.31802724  0.09151281  0.88069085    -0.32900
S548        S  0.19512641  0.11322830  0.82691747    -0.32900
H549        H  0.20525132  0.11985875  0.79974073     0.28500
H550        H  0.33257657  0.11167734  0.86411631     0.28400
H551        H  0.29778043  0.13188192  0.83955969     0.19000
H552        H  0.21428352  0.07677222  0.87033132     0.19000
C553        C  0.37884907  0.16463346  0.98804895    -0.06800
C554        C  0.36487685  0.16064540  0.51427904    -0.17900
C555        C  0.34456921  0.13925914  0.51844279     0.10400
C556        C  0.33767629  0.12052874  0.49606699    -0.06700
C557        C  0.34970200  0.12607387  0.96932597    -0.17900
C558        C  0.36984713  0.14768173  0.96492213     0.10400
S559        S  0.32819440  0.13721518  0.55273642    -0.32900
S560        S  0.38375858  0.15288679  0.92969619    -0.32900
H561        H  0.36494408  0.13455227  0.91550957     0.28500
H562        H  0.30158921  0.12901413  0.54230278     0.28400
H563        H  0.37080152  0.17376445  0.53221564     0.19000
H564        H  0.34412635  0.11218727  0.95187213     0.19000
C565        C  0.16054734  0.38123937  0.00230262    -0.06800
C566        C  0.14927934  0.37452706  0.52894919    -0.17900
C567        C  0.12800444  0.35399527  0.53250903     0.10400
C568        C  0.11758254  0.33885235  0.50875085    -0.06700
C569        C  0.13065156  0.34381815  0.98262846    -0.17900
C570        C  0.15225911  0.36398722  0.97919360     0.10400
S571        S  0.11507686  0.34859703  0.56792132    -0.32900
S572        S  0.16825300  0.36651119  0.94473041    -0.32900
H573        H  0.19552746  0.37214761  0.95508540     0.28500
H574        H  0.11305215  0.31864234  0.56521372     0.28400
H575        H  0.15589276  0.38683760  0.54720088     0.19000
H576        H  0.12388435  0.33182909  0.96423085     0.19000
C577        C  0.15272551  0.24356730  0.86074710    -0.06800
C578        C  0.13636720  0.21885213  0.86475528    -0.17900
C579        C  0.11312793  0.21866736  0.88328509     0.10400
C580        C  0.10593690  0.24405130  0.89831044    -0.06700
C581        C  0.12302441  0.26843813  0.89457007    -0.17900
C582        C  0.14628922  0.26834253  0.87656939     0.10400
S583        S  0.09336270  0.18576274  0.88705219    -0.32900
S584        S  0.16738887  0.30048706  0.87544032    -0.32900
H585        H  0.19313494  0.28619888  0.87086989     0.28500
H586        H  0.10512926  0.17120089  0.86386451     0.28400
H587        H  0.14130048  0.19986483  0.85257859     0.19000
H588        H  0.11865376  0.28794230  0.90617676     0.19000
C589        C  0.34553231  0.25783280  0.63883632    -0.06800
C590        C  0.36517122  0.28026120  0.63861254    -0.17900
C591        C  0.38804350  0.28025302  0.61986961     0.10400
C592        C  0.39117246  0.25749496  0.60019208    -0.06700
C593        C  0.37041130  0.23583639  0.59977936    -0.17900
C594        C  0.34776106  0.23587792  0.61860652     0.10400
S595        S  0.41281398  0.30925425  0.62338244    -0.32900
S596        S  0.32207338  0.20755367  0.61547569    -0.32900
H597        H  0.29917882  0.22359518  0.62585300     0.28500
H598        H  0.43637753  0.29096681  0.62525891     0.28400
H599        H  0.36363709  0.29709646  0.65432574     0.19000
H600        H  0.37151666  0.21863907  0.58444275     0.19000
C601        C  0.37431263  0.16737052  0.75485930    -0.06800
C602        C  0.38446736  0.15804116  0.72840841    -0.17900
C603        C  0.40642013  0.13791451  0.72624646     0.10400
C604        C  0.41855944  0.12627607  0.75101439    -0.06700
C605        C  0.41003220  0.13725934  0.77733946    -0.17900
C606        C  0.38843189  0.15773205  0.77953137     0.10400
S607        S  0.41791393  0.12787677  0.69131663    -0.32900
S608        S  0.37995850  0.17049292  0.81446348    -0.32900
H609        H  0.37394431  0.19867154  0.80567287     0.28500
H610        H  0.44602802  0.12218437  0.69912370     0.28400
H611        H  0.37450727  0.16558182  0.70914630     0.19000
H612        H  0.41950763  0.12898872  0.79656923     0.19000
C613        C  0.08302153  0.37496594  0.74897083    -0.06800
C614        C  0.09436138  0.36392381  0.77408872    -0.17900
C615        C  0.11578547  0.34315957  0.77380567     0.10400
C616        C  0.12730976  0.33369824  0.74762849    -0.06700
C617        C  0.11535828  0.34435058  0.72251175    -0.17900
C618        C  0.09331050  0.36438810  0.72287527     0.10400
S619        S  0.12869894  0.33159726  0.80780891    -0.32900
S620        S  0.08140939  0.37799963  0.68924537    -0.32900
H621        H  0.05387445  0.36741172  0.69284751     0.28500
H622        H  0.12177650  0.30271007  0.80285919     0.28400
H623        H  0.08678113  0.37193332  0.79419944     0.19000
H624        H  0.12375304  0.33760793  0.70228361     0.19000
C625        C  0.10740522  0.99176685  0.84955440    -0.06800
C626        C  0.11865322  0.46721243  0.86130167    -0.17900
C627        C  0.13692801  0.46764384  0.88459972     0.10400
C628        C  0.14442726  0.99329241  0.89658072    -0.06700
C629        C  0.13399743  0.01873218  0.88444423    -0.17900
C630        C  0.11593964  0.01828278  0.86106915     0.10400
S631        S  0.15019868  0.43353872  0.89666794    -0.32900
S632        S  0.10523550  0.05236026  0.84644476    -0.32900
H633        H  0.10373436  0.04289540  0.81825088     0.28500
H634        H  0.17856063  0.44238559  0.89678047     0.28400
H635        H  0.11219025  0.44676736  0.85260069     0.19000
H636        H  0.14036384  0.03930225  0.89290867     0.19000
C637        C  0.39250283  0.50584708  0.65163500    -0.06800
C638        C  0.38462823  0.03169882  0.63819248    -0.17900
C639        C  0.36816774  0.03127964  0.61353518     0.10400
C640        C  0.35806467  0.50464313  0.60236849    -0.06700
C641        C  0.36574593  0.47917755  0.61654932    -0.17900
C642        C  0.38270046  0.47948273  0.64082440     0.10400
S643        S  0.36136372  0.06541412  0.59708910    -0.32900
S644        S  0.39036494  0.44551618  0.65749127    -0.32900
H645        H  0.39190165  0.45633729  0.68519978     0.28500
H646        H  0.37273547  0.05684589  0.57095185     0.28400
H647        H  0.39271268  0.05200359  0.64579246     0.19000
H648        H  0.35798920  0.45871210  0.60907029     0.19000
C649        C  0.49330197  0.36969612  0.58924837    -0.06800
C650        C  0.47892297  0.36530452  0.61480580    -0.17900
C651        C  0.48103187  0.38469830  0.63711754     0.10400
C652        C  0.99815023  0.41155075  0.63264766    -0.06700
C653        C  0.01292557  0.41549629  0.60731421    -0.17900
C654        C  0.01022997  0.39587600  0.58493683     0.10400
S655        S  0.46153305  0.37662361  0.66891101    -0.32900
S656        S  0.02991643  0.40308947  0.55317782    -0.32900
H657        H  0.00912591  0.39246524  0.53471095     0.28500
H658        H  0.45476208  0.40513083  0.67572689     0.28400
H659        H  0.46641706  0.34613857  0.61777579     0.19000
H660        H  0.02666599  0.43387223  0.60499176     0.19000
C661        C  0.50215203  0.08856116  0.86959632    -0.06800
C662        C  0.48728817  0.08493376  0.89495431    -0.17900
C663        C  0.48899591  0.10549439  0.91660943     0.10400
C664        C  0.00624655  0.12961220  0.91323205    -0.06700
C665        C  0.02384608  0.13122757  0.88942562    -0.17900
C666        C  0.02235623  0.11105988  0.86772014     0.10400
S667        S  0.46941422  0.09884250  0.94856006    -0.32900
S668        S  0.04527404  0.11638095  0.83768986    -0.32900
H669        H  0.04853256  0.08733953  0.83061017     0.28500
H670        H  0.48898208  0.11219316  0.96663501     0.28400
H671        H  0.47409055  0.06622118  0.89775824     0.19000
H672        H  0.03820599  0.14908981  0.88702769     0.19000
O673        O  0.47595650  0.52785447  0.21214994    -0.89000
C674        C  0.45193917  0.51818094  0.29410149     0.87000
Mg675      Mg  0.47933240  0.99259303  0.18516750     1.58100
O676        O  0.02500988  0.53527007  0.28246473    -0.88700
O677        O  0.49923583  0.56491797  0.22761851    -0.76100
C678        C  0.06314999  0.89958144  0.24866741     0.92100
O679        O  0.43513335  0.98023260  0.23946706    -0.75900
O680        O  0.04271686  0.90096392  0.23131749    -0.83400
Mg681      Mg  0.43677737  0.52934999  0.23507791     1.58000
C682        C  0.08598613  0.48988837  0.32724007     0.92000
O683        O  0.43112122  0.57912443  0.23360826    -0.81700
H684        H  0.05517033  0.56115736  0.26780593    -0.07000
C685        C  0.00846057  0.94892035  0.29347721     0.86900
O686        O  0.02998810  0.99384671  0.19006209    -0.76200
O687        O  0.46072415  0.53210040  0.27370757    -0.88900
O688        O  0.06406893  0.50522205  0.33045328    -0.81700
C689        C  0.49892456  0.56744180  0.34592747     0.92100
C690        C  0.43687949  0.60015559  0.24997368     0.92000
Mg691      Mg  0.06223870  0.96936662  0.26599579     1.58000
O692        O  0.06827218  0.91975585  0.26621952    -0.81700
O693        O  0.06388467  0.51880463  0.26347860    -0.75900
O694        O  0.48694172  0.57529796  0.32307058    -0.81700
O695        O  0.41151534  0.52591723  0.19389753    -0.83400
O696        O  0.01247962  0.92489221  0.17739948    -0.81800
C697        C  0.04825039  0.53943913  0.27139636     0.86400
O698        O  0.03808038  0.96752879  0.22751565    -0.88900
O699        O  0.02302991  0.97036843  0.28928731    -0.89000
O700        O  0.00017810  0.93331169  0.27317377    -0.76100
Mg701      Mg  0.49146259  0.56618401  0.27554037     1.58000
O702        O  0.01321659  0.54339242  0.34805393    -0.83400
H703        H  0.49706758  0.55390024  0.18616392    -0.07200
O704        O  0.47411926  0.96411169  0.22038143    -0.88700
H705        H  0.44452423  0.93793316  0.23571560    -0.07000
H706        H  0.06925829  0.98452264  0.20460375    -0.07200
C707        C  0.45108518  0.95970159  0.23180888     0.86400
C708        C  0.49072011  0.54908730  0.20758562     0.87000
C709        C  0.04678757  0.98168257  0.20724954     0.87000
H710        H  0.00215413  0.94365865  0.31481896    -0.07200
O711        O  0.46863834  0.50614666  0.31148115    -0.76200
Mg712      Mg  0.00774767  0.93314905  0.22517089     1.58000
H713        H  0.42946026  0.51539023  0.29668039    -0.07200
C714        C  0.41163969  0.00882944  0.17617910     0.92000
O715        O  0.48335709  0.95520503  0.15537864    -0.83400
C716        C  0.99975922  0.93298091  0.15505553     0.92100
O717        O  0.45682692  0.59888669  0.26799672    -0.83400
Mg718      Mg  0.01796105  0.50633161  0.31757920     1.58200
O719        O  0.43249301  0.99185393  0.17391829    -0.81700
O720        O  0.08787999  0.97163591  0.30679873    -0.83400
O721        O  0.99644981  0.77441617  0.04909685    -0.89000
C722        C  0.43507858  0.76399867  0.48778230     0.87000
Mg723      Mg  0.03471527  0.79763289  0.04001512     1.58100
O724        O  0.47648133  0.70196120  0.00134886    -0.88700
O725        O  0.48422592  0.73053846  0.06179395    -0.76100
C726        C  0.08306358  0.74551833  0.41965411     0.92100
O727        O  0.48188433  0.81849172  0.00052559    -0.75900
O728        O  0.08039063  0.76869712  0.43347307    -0.83400
Mg729      Mg  0.46017699  0.79581674  0.03756319     1.58000
C730        C  0.00626844  0.65443415  0.43257810     0.92000
O731        O  0.43202232  0.77929131  0.07437935    -0.81700
H732        H  0.99062773  0.67121901  0.02871775    -0.07000
C733        C  0.49842231  0.74977187  0.43274927     0.86900
O734        O  0.05893255  0.75574530  0.03167887    -0.76200
O735        O  0.44891862  0.75967586  0.01123126    -0.88900
O736        O  0.48229432  0.66285593  0.44284110    -0.81700
C737        C  0.40414661  0.68353480  0.48698095     0.92100
C738        C  0.41553886  0.75816419  0.07876543     0.92000
Mg739      Mg  0.04004076  0.70759669  0.46199941     1.58000
O740        O  0.06719431  0.72409894  0.42467507    -0.81700
O741        O  0.01896841  0.68522252  0.49965800    -0.75900
O742        O  0.40872927  0.70194746  0.00770896    -0.81700
O743        O  0.47299303  0.83367732  0.06495891    -0.83400
O744        O  0.08780483  0.80323514  0.48934954    -0.81800
C745        C  0.99532977  0.68506803  0.01101627     0.86400
O746        O  0.04989133  0.74459443  0.48730933    -0.88900
O747        O  0.50051604  0.72883292  0.44861988    -0.89000
O748        O  0.01347720  0.77154933  0.43610834    -0.76100
Mg749      Mg  0.44770739  0.71852669  0.03206063     1.58000
O750        O  0.42237866  0.68044850  0.46751461    -0.83400
H751        H  0.01351194  0.75497962  0.08270611    -0.07200
O752        O  0.02036064  0.80136910  0.49629331    -0.88700
H753        H  0.50758099  0.83298229  0.47166016    -0.07000
H754        H  0.07645705  0.72103230  0.01277015    -0.07200
C755        C  0.50289742  0.81851128  0.48887856     0.86400
C756        C  0.99835114  0.75401157  0.06563581     0.87000
C757        C  0.06282662  0.73945580  0.01054884     0.87000
H758        H  0.48298695  0.74935904  0.41589015    -0.07200
O759        O  0.43846431  0.74774592  0.46649598    -0.76200
Mg760      Mg  0.04953567  0.78524026  0.46553316     1.58000
H761        H  0.42173020  0.78268053  0.48581615    -0.07200
C762        C  0.49618569  0.84717892  0.06807081     0.92000
O763        O  0.07464684  0.82284923  0.02984170    -0.83400
C764        C  0.09287951  0.81972414  0.01037499     0.92100
O765        O  0.41746567  0.73538488  0.06423941    -0.83400
Mg766      Mg  0.46231693  0.70556606  0.45743281     1.58200
O767        O  0.01493327  0.84007268  0.05453440    -0.81700
O768        O  0.02886712  0.66889383  0.43547455    -0.83400
O769        O  0.27400845  0.70117465  0.24588092    -0.89000
C770        C  0.25482775  0.74826764  0.31565463     0.87000
Mg771      Mg  0.30027839  0.71744578  0.21254952     1.58100
O772        O  0.19938304  0.74153127  0.26613290    -0.88700
O773        O  0.23178656  0.68342306  0.25200284    -0.76100
C774        C  0.24819312  0.84583432  0.18128623     0.92100
O775        O  0.31233137  0.74791780  0.27724285    -0.75900
O776        O  0.27197260  0.83307133  0.18211893    -0.83400
Mg777      Mg  0.29033794  0.70529861  0.28810583     1.58000
C778        C  0.15337235  0.81572948  0.24484767     0.92000
O779        O  0.27241467  0.66209320  0.30385422    -0.81700
H780        H  0.17300373  0.71707782  0.24369654    -0.07000
C781        C  0.24488735  0.81617698  0.26011858     0.86900
O782        O  0.26160816  0.72975827  0.18591567    -0.76200
O783        O  0.25209762  0.72746771  0.29977736    -0.88900
O784        O  0.16049957  0.80041811  0.26592303    -0.81700
C785        C  0.17302470  0.74430819  0.33647497     0.92100
C786        C  0.25063662  0.65300658  0.31692978     0.92000
Mg787      Mg  0.20981027  0.79401085  0.21117067     1.58000
O788        O  0.22684498  0.83676270  0.19487188    -0.81700
O789        O  0.18807112  0.75151414  0.22234192    -0.75900
O790        O  0.18825118  0.72246896  0.33060236    -0.81700
O791        O  0.33093045  0.68179802  0.27582075    -0.83400
O792        O  0.31162589  0.77875865  0.16953908    -0.81800
C793        C  0.18605957  0.73603067  0.24433160     0.86400
O794        O  0.24832992  0.77231370  0.19987896    -0.88900
O795        O  0.22661923  0.79870762  0.25321435    -0.89000
O796        O  0.26846103  0.81726705  0.24754629    -0.76100
Mg797      Mg  0.21284309  0.70543958  0.29120854     1.58000
O798        O  0.17352447  0.76689436  0.32155145    -0.83400
H799        H  0.25850416  0.67026989  0.22112368    -0.07200
O800        O  0.30116102  0.75877085  0.23355678    -0.88700
H801        H  0.32744949  0.78278742  0.25657421    -0.07000
H802        H  0.22950346  0.75201330  0.16782938    -0.07200
C803        C  0.31436757  0.76387235  0.25554454     0.86400
C804        C  0.25520433  0.68424419  0.23903012     0.87000
C805        C  0.24594760  0.75171913  0.18368978     0.87000
H806        H  0.24103696  0.83024624  0.27782468    -0.07200
O807        O  0.23943584  0.77040292  0.31319943    -0.76200
Mg808      Mg  0.28727890  0.79512157  0.20860440     1.58000
H809        H  0.27135487  0.74798876  0.33143439    -0.07200
C810        C  0.34757069  0.68444894  0.25485361     0.92000
O811        O  0.32731522  0.73431174  0.17717905    -0.83400
C812        C  0.32708154  0.75741843  0.16291455     0.92100
O813        O  0.22763678  0.66718567  0.31720851    -0.83400
Mg814      Mg  0.20077927  0.78289503  0.28659532     1.58200
O815        O  0.34099571  0.69985940  0.23352439    -0.81700
O816        O  0.16916205  0.81758953  0.22314833    -0.83400
O817        O  0.23510129  0.99108915  0.44795817    -0.89000
C818        C  0.24242635  0.56655532  0.99535171     0.87000
Mg819      Mg  0.20866551  0.95587363  0.46091842     1.58100
O820        O  0.30105839  0.52021368  0.49886512    -0.88700
O821        O  0.27853257  0.50087834  0.43799072    -0.76100
C822        C  0.24154824  0.93390101  0.09559557     0.92100
O823        O  0.18720136  0.52247940  0.48696607    -0.75900
O824        O  0.22039102  0.93376094  0.07900961    -0.83400
Mg825      Mg  0.21524643  0.53393194  0.44898570     1.58000
C826        C  0.33487924  0.00402590  0.08069516     0.92000
O827        O  0.23768920  0.55061830  0.40897861    -0.81700
H828        H  0.33352109  0.99934936  0.48033266    -0.07000
C829        C  0.24563514  0.51391975  0.06390955     0.86900
O830        O  0.24679998  0.93238242  0.48015256    -0.76200
O831        O  0.24832753  0.54871243  0.47644679    -0.88900
O832        O  0.33182028  0.52454388  0.06286660    -0.81700
C833        C  0.32102222  0.59508485  0.99976166     0.92100
C834        C  0.25929799  0.56575871  0.40328600     0.92000
Mg835      Mg  0.28577521  0.96593275  0.04999686     1.58000
O836        O  0.26383479  0.94768003  0.08940648    -0.81700
O837        O  0.31376318  0.97782664  0.01228364    -0.75900
O838        O  0.30719332  0.58504398  0.47842300    -0.81700
O839        O  0.18143031  0.51794597  0.41987158    -0.83400
O840        O  0.19304576  0.91500818  0.02099704    -0.81800
C841        C  0.31738098  0.99906041  0.49644065     0.86400
O842        O  0.25235016  0.95156656  0.02273804    -0.88900
O843        O  0.26743536  0.50776729  0.05098030    -0.89000
O844        O  0.22198281  0.99957110  0.06085853    -0.76100
Mg845      Mg  0.29049660  0.54281922  0.46060658     1.58000
O846        O  0.32109199  0.58140635  0.02319040    -0.83400
H847        H  0.25760686  0.96629782  0.42195879    -0.07200
O848        O  0.19970451  0.97991258  0.00024263    -0.88700
H849        H  0.16851459  0.50153111  0.01923642    -0.07000
H850        H  0.27697028  0.91848777  0.50741472    -0.07200
C851        C  0.18453383  0.50140750  0.00298852     0.86400
C852        C  0.25704925  0.98515405  0.43519242     0.87000
C853        C  0.25963594  0.93306634  0.50372184     0.87000
H854        H  0.24541030  0.53271780  0.07723186    -0.07200
O855        O  0.25538364  0.56690833  0.01886899    -0.76200
Mg856      Mg  0.21001475  0.95758405  0.03857624     1.58000
H857        H  0.22504897  0.58118628  0.99195685    -0.07200
C858        C  0.16608778  0.49565970  0.41943367     0.92000
O859        O  0.18104685  0.91853185  0.47539292    -0.83400
C860        C  0.18060854  0.90492935  0.49878051     0.92100
O861        O  0.27984455  0.56731284  0.42048873    -0.83400
Mg862      Mg  0.29366173  0.54331122  0.03784670     1.58200
O863        O  0.17018044  0.97418810  0.43641663    -0.81700
O864        O  0.32011481  0.98135672  0.07903187    -0.83400
C865        C  0.24433484  0.87068728  0.16220705    -0.06800
C866        C  0.26416319  0.89292335  0.16209881    -0.17900
C867        C  0.26239806  0.91545026  0.14244065     0.10400
C868        C  0.24112123  0.91509236  0.12120546    -0.06700
C869        C  0.22076792  0.89320195  0.12219507    -0.17900
C870        C  0.22198307  0.87139081  0.14239719     0.10400
S871        S  0.28784483  0.94387100  0.14598266    -0.32900
S872        S  0.19617116  0.84320629  0.13971752    -0.32900
H873        H  0.18363888  0.85019484  0.16576279     0.28500
H874        H  0.26839627  0.96577843  0.13961779     0.28400
H875        H  0.28109927  0.89279587  0.17752158     0.19000
H876        H  0.20434004  0.89214873  0.10627222     0.19000
C877        C  0.25324252  0.62649072  0.33436980    -0.06800
C878        C  0.27981379  0.61972914  0.34591272    -0.17900
C879        C  0.28303644  0.59875268  0.36704105     0.10400
C880        C  0.25896965  0.58394670  0.37717340    -0.06700
C881        C  0.23283976  0.58906482  0.36378233    -0.17900
C882        C  0.22978097  0.60977666  0.34252190     0.10400
S883        S  0.31802931  0.59177183  0.38082977    -0.32900
S884        S  0.19527637  0.61379717  0.32688072    -0.32900
H885        H  0.20544398  0.62003893  0.29962996     0.28500
H886        H  0.33264660  0.61196447  0.36435109     0.28400
H887        H  0.29801616  0.63198979  0.33938666     0.19000
H888        H  0.21421257  0.57757403  0.37056206     0.19000
C889        C  0.37883815  0.66445046  0.48814613    -0.06800
C890        C  0.36545022  0.66171992  0.01447163    -0.17900
C891        C  0.34513547  0.64028414  0.01850681     0.10400
C892        C  0.33840959  0.62149893  0.99611211    -0.06700
C893        C  0.34967634  0.62591251  0.46939294    -0.17900
C894        C  0.36971199  0.64762287  0.46497808     0.10400
S895        S  0.32849881  0.63826566  0.05266887    -0.32900
S896        S  0.38327347  0.65319259  0.42966527    -0.32900
H897        H  0.36497179  0.63425948  0.41557589     0.28500
H898        H  0.30198898  0.62999687  0.04204372     0.28400
H899        H  0.37123799  0.67486250  0.03243352     0.19000
H900        H  0.34400593  0.61212740  0.45189237     0.19000
C901        C  0.16204830  0.87943023  0.50218242    -0.06800
C902        C  0.14920058  0.87514460  0.02919078    -0.17900
C903        C  0.12830130  0.85430074  0.03304363     0.10400
C904        C  0.11865028  0.83814662  0.00961236    -0.06700
C905        C  0.13272366  0.84120823  0.48324565    -0.17900
C906        C  0.15438879  0.86128426  0.47955663     0.10400
S907        S  0.11476930  0.84994145  0.06837159    -0.32900
S908        S  0.17126343  0.86259519  0.44544832    -0.32900
H909        H  0.19811880  0.86944276  0.45618195     0.28500
H910        H  0.11340981  0.81987061  0.06672831     0.28400
H911        H  0.15526903  0.88814357  0.04716653     0.19000
H912        H  0.12641645  0.82850833  0.46515181     0.19000
C913        C  0.15273754  0.74335531  0.36026249    -0.06800
C914        C  0.13637569  0.71864074  0.36426778    -0.17900
C915        C  0.11326517  0.71839174  0.38296409     0.10400
C916        C  0.10627269  0.74366749  0.39824709    -0.06700
C917        C  0.12335944  0.76805777  0.39449642    -0.17900
C918        C  0.14644128  0.76805812  0.37625372     0.10400
S919        S  0.09335286  0.68556679  0.38655488    -0.32900
S920        S  0.16747682  0.80024251  0.37500261    -0.32900
H921        H  0.19320366  0.78601866  0.37014622     0.28500
H922        H  0.10468239  0.67130358  0.36297178     0.28400
H923        H  0.14118573  0.69971606  0.35194833     0.19000
H924        H  0.11911477  0.78749801  0.40625331     0.19000
C925        C  0.34666233  0.75982539  0.13883574    -0.06800
C926        C  0.36581309  0.78271968  0.13821423    -0.17900
C927        C  0.38870475  0.78293108  0.11942197     0.10400
C928        C  0.39241906  0.75983837  0.10021394    -0.06700
C929        C  0.37207093  0.73776778  0.10014846    -0.17900
C930        C  0.34936947  0.73765931  0.11889563     0.10400
S931        S  0.41266208  0.81273338  0.12211593    -0.32900
S932        S  0.32420466  0.70882532  0.11601231    -0.32900
H933        H  0.30091853  0.72473488  0.12570138     0.28500
H934        H  0.43663612  0.79514834  0.12502056     0.28400
H935        H  0.36386555  0.79981171  0.15360458     0.19000
H936        H  0.37353750  0.72030187  0.08514470     0.19000
C937        C  0.37422567  0.66727803  0.25390016    -0.06800
C938        C  0.38403524  0.65758801  0.22744068    -0.17900
C939        C  0.40580773  0.63724406  0.22526535     0.10400
C940        C  0.41809938  0.62576184  0.25004218    -0.06700
C941        C  0.40980746  0.63699004  0.27633870    -0.17900
C942        C  0.38839822  0.65765288  0.27853175     0.10400
S943        S  0.41691043  0.62679083  0.19032223    -0.32900
S944        S  0.38024671  0.67071116  0.31342956    -0.32900
H945        H  0.37440549  0.69888301  0.30450375     0.28500
H946        H  0.44509304  0.62113007  0.19789780     0.28400
H947        H  0.37396126  0.66505660  0.20820942     0.19000
H948        H  0.41935293  0.62880444  0.29556853     0.19000
C949        C  0.08275254  0.87472777  0.24733464    -0.06800
C950        C  0.09357699  0.86332148  0.27251578    -0.17900
C951        C  0.11489416  0.84244970  0.27240233     0.10400
C952        C  0.12699180  0.83335877  0.24635897    -0.06700
C953        C  0.11553016  0.84435592  0.22113658    -0.17900
C954        C  0.09346419  0.86439624  0.22131099     0.10400
S955        S  0.12671332  0.83007192  0.30652292    -0.32900
S956        S  0.08197358  0.87818587  0.18760889    -0.32900
H957        H  0.05436521  0.86768093  0.19086949     0.28500
H958        H  0.12030490  0.80126020  0.30054599     0.28400
H959        H  0.08558214  0.87104465  0.29257305     0.19000
H960        H  0.12429451  0.83785550  0.20098896     0.19000
C961        C  0.10806132  0.49174069  0.34919430    -0.06800
C962        C  0.11678623  0.96517444  0.36199695    -0.17900
C963        C  0.13544274  0.96556287  0.38500529     0.10400
C964        C  0.14474521  0.49321357  0.39652210    -0.06700
C965        C  0.13391029  0.51863079  0.38473276    -0.17900
C966        C  0.11610392  0.51821911  0.36116345     0.10400
S967        S  0.14687752  0.93128059  0.39839484    -0.32900
S968        S  0.10520556  0.55233512  0.34679979    -0.32900
H969        H  0.10415519  0.54315727  0.31849173     0.28500
H970        H  0.17572816  0.93815061  0.39690684     0.28400
H971        H  0.10909074  0.94478208  0.35422182     0.19000
H972        H  0.13982676  0.53917133  0.39358758     0.19000
C973        C  0.38998130  0.00784574  0.15376742    -0.06800
C974        C  0.38511125  0.53153418  0.13749937    -0.17900
C975        C  0.36876818  0.53130656  0.11278526     0.10400
C976        C  0.35630016  0.00583891  0.10398847    -0.06700
C977        C  0.36108704  0.98111522  0.12057920    -0.17900
C978        C  0.37746804  0.98189304  0.14521297     0.10400
S979        S  0.36224142  0.56554114  0.09641936    -0.32900
S980        S  0.38076721  0.94922051  0.16540011    -0.32900
H981        H  0.38442386  0.96252307  0.19182040     0.28500
H982        H  0.37349622  0.55693107  0.07024402     0.28400
H983        H  0.39325591  0.55176543  0.14522735     0.19000
H984        H  0.35141322  0.96093221  0.11481426     0.19000
C985        C  0.49694753  0.87275471  0.08711219    -0.06800
C986        C  0.47216913  0.87971349  0.10195583    -0.17900
C987        C  0.47232659  0.89924414  0.12429908     0.10400
C988        C  0.99724317  0.91272967  0.13138789    -0.06700
C989        C  0.01703578  0.91297700  0.10946799    -0.17900
C990        C  0.01514625  0.89347708  0.08692261     0.10400
S991        S  0.43971174  0.90415388  0.14329881    -0.32900
S992        S  0.04146827  0.89638378  0.05963576    -0.32900
H993        H  0.02243575  0.89113194  0.03737858     0.28500
H994        H  0.45197744  0.90741577  0.17019377     0.28400
H995        H  0.45259591  0.86877259  0.09721560     0.19000
H996        H  0.03406422  0.92842897  0.10992999     0.19000
C997        C  0.50152952  0.58853183  0.36888579    -0.06800
C998        C  0.48705077  0.58477965  0.39444891    -0.17900
C999        C  0.48883149  0.60539340  0.41605012     0.10400
C1000       C  0.00652162  0.62917066  0.41342293    -0.06700
C1001       C  0.02488674  0.63024893  0.39017930    -0.17900
C1002       C  0.02356127  0.61008227  0.36847521     0.10400
S1003       S  0.46973450  0.59858982  0.44826237    -0.32900
S1004       S  0.04736619  0.61496753  0.33905974    -0.32900
H1005       H  0.04932921  0.58607193  0.33104664     0.28500
H1006       H  0.48937366  0.61219584  0.46606964     0.28400
H1007       H  0.47410035  0.56592245  0.39746155     0.19000
H1008       H  0.03970139  0.64776279  0.38814140     0.19000
O1009       O  0.47620433  0.52765375  0.71213694    -0.89000
C1010       C  0.45228426  0.51840700  0.79411374     0.87000
Mg1011     Mg  0.48166764  0.99217127  0.68492176     1.58100
O1012       O  0.02488265  0.53555433  0.78254726    -0.88700
O1013       O  0.49948854  0.56481781  0.72738852    -0.76100
C1014       C  0.06298808  0.89941613  0.75013977     0.92100
O1015       O  0.43598048  0.98048928  0.73895406    -0.75900
O1016       O  0.04252625  0.90063339  0.73277668    -0.83400
Mg1017     Mg  0.43706420  0.52938861  0.73510133     1.58000
C1018       C  0.08630291  0.49076801  0.82736507     0.92000
O1019       O  0.43153117  0.57915131  0.73335574    -0.81700
H1020       H  0.05485772  0.56162895  0.76782181    -0.07000
C1021       C  0.00820736  0.94936529  0.79402839     0.86900
O1022       O  0.03054139  0.99330304  0.69044595    -0.76200
O1023       O  0.46103744  0.53230671  0.77369310    -0.88900
O1024       O  0.06445399  0.50623177  0.83041450    -0.81700
C1025       C  0.49916498  0.56774079  0.84580523     0.92100
C1026       C  0.43724097  0.60023700  0.74966744     0.92000
Mg1027     Mg  0.06220522  0.96936145  0.76653759     1.58000
O1028       O  0.06812106  0.91975206  0.76750428    -0.81700
O1029       O  0.06390167  0.51931623  0.76369509    -0.75900
O1030       O  0.48737728  0.57568451  0.82287383    -0.81700
O1031       O  0.41173798  0.52582204  0.69395325    -0.83400
O1032       O  0.01212615  0.92407386  0.67821160    -0.81800
C1033       C  0.04809574  0.53987132  0.77148218     0.86400
O1034       O  0.03817224  0.96705273  0.72803053    -0.88900
O1035       O  0.02293750  0.97066658  0.78968643    -0.89000
O1036       O  0.99984476  0.93364671  0.77384645    -0.76100
Mg1037     Mg  0.49180106  0.56637414  0.77533932     1.58000
O1038       O  0.01397166  0.54450318  0.84743890    -0.83400
H1039       H  0.49732742  0.55353626  0.68599903    -0.07200
O1040       O  0.47500299  0.96387113  0.72038901    -0.88700
H1041       H  0.44494390  0.93809568  0.73544202    -0.07000
H1042       H  0.06963347  0.98360367  0.70520970    -0.07200
C1043       C  0.45176683  0.95977666  0.73149923     0.86400
C1044       C  0.49098195  0.54885255  0.70744949     0.87000
C1045       C  0.04712013  0.98099792  0.70773791     0.87000
H1046       H  0.00179248  0.94436037  0.81539702    -0.07200
O1047       O  0.46900595  0.50637196  0.81146927    -0.76200
Mg1048     Mg  0.00761284  0.93287827  0.72589918     1.58000
H1049       H  0.42980969  0.51561254  0.79672269    -0.07200
C1050       C  0.41378582  0.00801415  0.67475057     0.92000
O1051       O  0.48676448  0.95473689  0.65506032    -0.83400
C1052       C  0.00020332  0.93234396  0.65546397     0.92100
O1053       O  0.45717338  0.59905562  0.76771215    -0.83400
Mg1054     Mg  0.01828661  0.50695903  0.81768115     1.58200
O1055       O  0.43525494  0.99186578  0.67240484    -0.81700
O1056       O  0.08787100  0.97227292  0.80729182    -0.83400
O1057       O  0.99577181  0.77479881  0.54861260    -0.89000
C1058       C  0.43688878  0.76464007  0.98854375     0.87000
Mg1059     Mg  0.03394594  0.79843666  0.53955175     1.58100
O1060       O  0.47584953  0.70211857  0.50054909    -0.88700
O1061       O  0.48341055  0.73068747  0.56089742    -0.76100
C1062       C  0.08385844  0.74466608  0.92010524     0.92100
O1063       O  0.47858229  0.81896601  0.49997877    -0.75900
O1064       O  0.08131982  0.76777767  0.93406047    -0.83400
Mg1065     Mg  0.45770690  0.79536809  0.53709190     1.58000
C1066       C  0.00681224  0.65366215  0.93328196     0.92000
O1067       O  0.43040761  0.77794475  0.57384075    -0.81700
H1068       H  0.98961319  0.67158733  0.52776141    -0.07000
C1069       C  0.50018599  0.74977851  0.93407965     0.86900
O1070       O  0.05832434  0.75661700  0.53119344    -0.76200
O1071       O  0.44712854  0.75924639  0.51050819    -0.88900
O1072       O  0.48255104  0.66288470  0.94331054    -0.81700
C1073       C  0.40459549  0.68455758  0.98734523     0.92100
C1074       C  0.41435446  0.75654811  0.57833298     0.92000
Mg1075     Mg  0.04086200  0.70676015  0.96248150     1.58000
O1076       O  0.06787962  0.72328995  0.92500201    -0.81700
O1077       O  0.01981714  0.68455488  0.00029453    -0.75900
O1078       O  0.40819479  0.70104272  0.50722964    -0.81700
O1079       O  0.46996066  0.83246302  0.56551980    -0.83400
O1080       O  0.08863716  0.80257941  0.98987573    -0.81800
C1081       C  0.99438886  0.68552868  0.51015178     0.86400
O1082       O  0.05081198  0.74376115  0.98773371    -0.88900
O1083       O  0.50189291  0.72855662  0.94963408    -0.89000
O1084       O  0.01447347  0.77070219  0.93646534    -0.76100
Mg1085     Mg  0.44693894  0.71801660  0.53135730     1.58000
O1086       O  0.42288312  0.68139302  0.96793968    -0.83400
H1087       H  0.01302849  0.75480273  0.58180769    -0.07200
O1088       O  0.02120319  0.80061055  0.99667107    -0.88700
H1089       H  0.51166652  0.83205277  0.97285407    -0.07000
H1090       H  0.07581162  0.72195376  0.51214665    -0.07200
C1091       C  0.50645558  0.81774804  0.99005459     0.86400
C1092       C  0.99775401  0.75412077  0.56482594     0.87000
C1093       C  0.06209840  0.74032777  0.51003422     0.87000
H1094       H  0.48468223  0.74995239  0.91727847    -0.07200
O1095       O  0.44000931  0.74837602  0.96723268    -0.76200
Mg1096     Mg  0.05044955  0.78442179  0.96600171     1.58000
H1097       H  0.42380022  0.78351596  0.98663341    -0.07200
C1098       C  0.49264850  0.84684615  0.56814578     0.92000
O1099       O  0.07401210  0.82363717  0.52931456    -0.83400
C1100       C  0.09227155  0.82026619  0.50988700     0.92100
O1101       O  0.41649881  0.73385613  0.56374608    -0.83400
Mg1102     Mg  0.46325236  0.70587538  0.95812942     1.58200
O1103       O  0.01379658  0.84111218  0.55376822    -0.81700
O1104       O  0.02954352  0.66795315  0.93601618    -0.83400
O1105       O  0.27354162  0.70027589  0.74563755    -0.89000
C1106       C  0.25504798  0.74743540  0.81541421     0.87000
Mg1107     Mg  0.29953551  0.71631903  0.71219127     1.58100
O1108       O  0.19932139  0.74123979  0.76616991    -0.88700
O1109       O  0.23119651  0.68284821  0.75172543    -0.76100
C1110       C  0.24831053  0.84514599  0.68110751     0.92100
O1111       O  0.31219954  0.74698196  0.77671709    -0.75900
O1112       O  0.27190018  0.83202283  0.68166838    -0.83400
Mg1113     Mg  0.29013639  0.70447272  0.78771977     1.58000
C1114       C  0.15366873  0.81596714  0.74572305     0.92000
O1115       O  0.27212969  0.66141587  0.80338943    -0.81700
H1116       H  0.17232572  0.71718555  0.74404531    -0.07000
C1117       C  0.24530640  0.81556679  0.75999774     0.86900
O1118       O  0.26064179  0.72885144  0.68590821    -0.76200
O1119       O  0.25206912  0.72672582  0.79947254    -0.88900
O1120       O  0.16076160  0.80033265  0.76657556    -0.81700
C1121       C  0.17349606  0.74385911  0.83664936     0.92100
C1122       C  0.25035058  0.65233402  0.81643930     0.92000
Mg1123     Mg  0.20958223  0.79383168  0.71139170     1.58000
O1124       O  0.22700196  0.83643315  0.69498977    -0.81700
O1125       O  0.18742924  0.75156978  0.72262738    -0.75900
O1126       O  0.18854424  0.72196311  0.83058262    -0.81700
O1127       O  0.33068614  0.68096068  0.77547000    -0.83400
O1128       O  0.31069575  0.77724015  0.66891755    -0.81800
C1129       C  0.18560400  0.73598278  0.74455980     0.86400
O1130       O  0.24775068  0.77160800  0.69973788    -0.88900
O1131       O  0.22683332  0.79825208  0.75326586    -0.89000
O1132       O  0.26876201  0.81645790  0.74718974    -0.76100
Mg1133     Mg  0.21267187  0.70494312  0.79102343     1.58000
O1134       O  0.17404108  0.76651465  0.82183681    -0.83400
H1135       H  0.25784172  0.66946910  0.72088956    -0.07200
O1136       O  0.30075230  0.75767469  0.73307103    -0.88700
H1137       H  0.32729701  0.78169519  0.75578575    -0.07000
H1138       H  0.22844728  0.75117388  0.66805199    -0.07200
C1139       C  0.31414480  0.76282109  0.75493392     0.86400
C1140       C  0.25463517  0.68346202  0.73879940     0.87000
C1141       C  0.24506679  0.75089506  0.68372867     0.87000
H1142       H  0.24173441  0.82968341  0.77772543    -0.07200
O1143       O  0.23985617  0.76971907  0.81309732    -0.76200
Mg1144     Mg  0.28698508  0.79401468  0.70812430     1.58000
H1145       H  0.27165894  0.74695702  0.83110196    -0.07200
C1146       C  0.34720006  0.68361497  0.75441158     0.92000
O1147       O  0.32630693  0.73277874  0.67663589    -0.83400
C1148       C  0.32600642  0.75580317  0.66228500     0.92100
O1149       O  0.22736800  0.66653441  0.81678866    -0.83400
Mg1150     Mg  0.20113011  0.78250802  0.78679753     1.58200
O1151       O  0.34035980  0.69877153  0.73298975    -0.81700
O1152       O  0.16933563  0.81790787  0.72393100    -0.83400
O1153       O  0.23443472  0.99201236  0.94850451    -0.89000
C1154       C  0.24188536  0.56574032  0.49534835     0.87000
Mg1155     Mg  0.20782301  0.95696947  0.96153202     1.58100
O1156       O  0.30150086  0.52084172  0.99866473    -0.88700
O1157       O  0.27854035  0.50144119  0.93802923    -0.76100
C1158       C  0.24233421  0.93291530  0.59512031     0.92100
O1159       O  0.18751403  0.52332961  0.98738119    -0.75900
O1160       O  0.22117231  0.93283349  0.57853724    -0.83400
Mg1161     Mg  0.21545939  0.53463091  0.94929347     1.58000
C1162       C  0.33600012  0.00290685  0.57998102     0.92000
O1163       O  0.23781078  0.55091953  0.90922794    -0.81700
H1164       H  0.33293099  0.00007689  0.98087691    -0.07000
C1165       C  0.24526680  0.51331920  0.56410496     0.86900
O1166       O  0.24585331  0.93328479  0.98073607    -0.76200
O1167       O  0.24873389  0.54936932  0.97655157    -0.88900
O1168       O  0.33138388  0.52414918  0.56326620    -0.81700
C1169       C  0.32043692  0.59436458  0.49997272     0.92100
C1170       C  0.25939333  0.56597255  0.90328750     0.92000
Mg1171     Mg  0.28670762  0.96484826  0.54954332     1.58000
O1172       O  0.26471196  0.94650705  0.58886002    -0.81700
O1173       O  0.31458387  0.97696302  0.51179189    -0.75900
O1174       O  0.30789195  0.58565517  0.97817259    -0.81700
O1175       O  0.18148777  0.51884832  0.92027169    -0.83400
O1176       O  0.19392751  0.91393444  0.52045683    -0.81800
C1177       C  0.31673930  0.99989458  0.99693435     0.86400
O1178       O  0.25324500  0.95053459  0.52223693    -0.88900
O1179       O  0.26711444  0.50717717  0.55125028    -0.89000
O1180       O  0.22276060  0.99850641  0.56025828    -0.76100
Mg1181     Mg  0.29082277  0.54340182  0.96047806     1.58000
O1182       O  0.32056026  0.58066852  0.52337379    -0.83400
H1183       H  0.25683919  0.96694202  0.92267832    -0.07200
O1184       O  0.20048794  0.97875673  0.49964640    -0.88700
H1185       H  0.16827613  0.50068768  0.51887161    -0.07000
H1186       H  0.27595927  0.91936234  0.00805840    -0.07200
C1187       C  0.18435836  0.50062275  0.50268715     0.86400
C1188       C  0.25636380  0.98588760  0.93579058     0.87000
C1189       C  0.25868874  0.93400060  0.00430041     0.87000
H1190       H  0.24499827  0.53209583  0.57745636    -0.07200
O1191       O  0.25480932  0.56605745  0.51889416    -0.76200
Mg1192     Mg  0.21085538  0.95651757  0.53800688     1.58000
H1193       H  0.22441690  0.58027331  0.49201181    -0.07200
C1194       C  0.16605216  0.49663690  0.91981693     0.92000
O1195       O  0.18003944  0.91981515  0.97601144    -0.83400
C1196       C  0.17968825  0.90607689  0.99931522     0.92100
O1197       O  0.28001063  0.56775654  0.92037861    -0.83400
Mg1198     Mg  0.29318190  0.54269336  0.53804572     1.58200
O1199       O  0.16945035  0.97538397  0.93706362    -0.81700
O1200       O  0.32121623  0.98021554  0.57862180    -0.83400
C1201       C  0.24462074  0.87001501  0.66202046    -0.06800
C1202       C  0.26477803  0.89194163  0.66166746    -0.17900
C1203       C  0.26320751  0.91440123  0.64192208     0.10400
C1204       C  0.24177571  0.91426695  0.62083959    -0.06700
C1205       C  0.22108348  0.89272009  0.62210097    -0.17900
C1206       C  0.22213043  0.87097873  0.64238555     0.10400
S1207       S  0.28913167  0.94241968  0.64512948    -0.32900
S1208       S  0.19592506  0.84314755  0.63999580    -0.32900
H1209       H  0.18376758  0.85030034  0.66617488     0.28500
H1210       H  0.26994183  0.96461689  0.63895094     0.28400
H1211       H  0.28183749  0.89160930  0.67695026     0.19000
H1212       H  0.20451413  0.89185475  0.60631514     0.19000
C1213       C  0.25301177  0.62585344  0.83385587    -0.06800
C1214       C  0.27966508  0.61908417  0.84520116    -0.17900
C1215       C  0.28298397  0.59831501  0.86648153     0.10400
C1216       C  0.25893243  0.58378209  0.87697886    -0.06700
C1217       C  0.23271558  0.58879844  0.86372365    -0.17900
C1218       C  0.22956370  0.60927676  0.84228013     0.10400
S1219       S  0.31806259  0.59127854  0.88002194    -0.32900
S1220       S  0.19497951  0.61320926  0.82679244    -0.32900
H1221       H  0.20501055  0.61933350  0.79946447     0.28500
H1222       H  0.33271015  0.61077841  0.86277591     0.28400
H1223       H  0.29786240  0.63122251  0.83844318     0.19000
H1224       H  0.21410320  0.57744137  0.87076140     0.19000
C1225       C  0.37914951  0.66559178  0.98828520    -0.06800
C1226       C  0.36535031  0.66061575  0.51445289    -0.17900
C1227       C  0.34497993  0.63929123  0.51864021     0.10400
C1228       C  0.33795198  0.62062564  0.49625561    -0.06700
C1229       C  0.35024920  0.62690173  0.96932112    -0.17900
C1230       C  0.37017686  0.64876576  0.96503889     0.10400
S1231       S  0.32869436  0.63724640  0.55297696    -0.32900
S1232       S  0.38381997  0.65450236  0.92978562    -0.32900
H1233       H  0.36504251  0.63619310  0.91551266     0.28500
H1234       H  0.30200735  0.62924714  0.54260037     0.28400
H1235       H  0.37132853  0.67371975  0.53238119     0.19000
H1236       H  0.34477367  0.61308907  0.95177874     0.19000
C1237       C  0.16135462  0.88037196  0.00253961    -0.06800
C1238       C  0.14927902  0.87499729  0.52867122    -0.17900
C1239       C  0.12793500  0.85463640  0.53252744     0.10400
C1240       C  0.11843630  0.83816648  0.50924579    -0.06700
C1241       C  0.13222618  0.84210571  0.98337371    -0.17900
C1242       C  0.15343382  0.86265137  0.97966224     0.10400
S1243       S  0.11360658  0.85137849  0.56764602    -0.32900
S1244       S  0.16937372  0.86506620  0.94516525    -0.32900
H1245       H  0.19652305  0.87143541  0.95543055     0.28500
H1246       H  0.11218331  0.82127506  0.56678816     0.28400
H1247       H  0.15517392  0.88831891  0.54647521     0.19000
H1248       H  0.12569093  0.82974723  0.96513097     0.19000
C1249       C  0.15332099  0.74284679  0.86050979    -0.06800
C1250       C  0.13725324  0.71796925  0.86473921    -0.17900
C1251       C  0.11425132  0.71756338  0.88356328     0.10400
C1252       C  0.10699602  0.74289779  0.89862644    -0.06700
C1253       C  0.12379374  0.76745824  0.89464213    -0.17900
C1254       C  0.14684250  0.76757626  0.87637688     0.10400
S1255       S  0.09476157  0.68451410  0.88758939    -0.32900
S1256       S  0.16761030  0.79993639  0.87496878    -0.32900
H1257       H  0.19345822  0.78588972  0.87024970     0.28500
H1258       H  0.10848579  0.66880665  0.86629112     0.28400
H1259       H  0.14218910  0.69905276  0.85246170     0.19000
H1260       H  0.11936081  0.78694671  0.90625055     0.19000
C1261       C  0.34555170  0.75812545  0.63825290    -0.06800
C1262       C  0.36502654  0.78070763  0.63804562    -0.17900
C1263       C  0.38800802  0.78078379  0.61943778     0.10400
C1264       C  0.39138953  0.75797107  0.59986960    -0.06700
C1265       C  0.37080845  0.73614277  0.59945056    -0.17900
C1266       C  0.34807139  0.73608543  0.61815003     0.10400
S1267       S  0.41259839  0.80993796  0.62299962    -0.32900
S1268       S  0.32266844  0.70749696  0.61503193    -0.32900
H1269       H  0.29955321  0.72343699  0.62506597     0.28500
H1270       H  0.43627614  0.79180782  0.62492320     0.28400
H1271       H  0.36329067  0.79759315  0.65368487     0.19000
H1272       H  0.37212038  0.71887803  0.58420413     0.19000
C1273       C  0.37404261  0.66676395  0.75348429    -0.06800
C1274       C  0.38390023  0.65709948  0.72704115    -0.17900
C1275       C  0.40587815  0.63699681  0.72488825     0.10400
C1276       C  0.41836916  0.62576617  0.74967602    -0.06700
C1277       C  0.41006365  0.63704161  0.77594910    -0.17900
C1278       C  0.38840842  0.65743909  0.77812150     0.10400
S1279       S  0.41691927  0.62646211  0.68995108    -0.32900
S1280       S  0.38016413  0.67048846  0.81300383    -0.32900
H1281       H  0.37395818  0.69855976  0.80401841     0.28500
H1282       H  0.44516923  0.62104928  0.69744440     0.28400
H1283       H  0.37368762  0.66436147  0.70780675     0.19000
H1284       H  0.41975105  0.62904506  0.79518519     0.19000
C1285       C  0.08277169  0.87468375  0.74884092    -0.06800
C1286       C  0.09409007  0.86360307  0.77396942    -0.17900
C1287       C  0.11567755  0.84299001  0.77370365     0.10400
C1288       C  0.12738451  0.83370685  0.74754526    -0.06700
C1289       C  0.11552121  0.84445894  0.72242584    -0.17900
C1290       C  0.09333938  0.86434894  0.72276189     0.10400
S1291       S  0.12851546  0.83134736  0.80770959    -0.32900
S1292       S  0.08159262  0.87807665  0.68912890    -0.32900
H1293       H  0.05414430  0.86716149  0.69243114     0.28500
H1294       H  0.12176766  0.80244429  0.80261029     0.28400
H1295       H  0.08634611  0.87144618  0.79408043     0.19000
H1296       H  0.12406505  0.83788509  0.70220688     0.19000
C1297       C  0.10832418  0.49265747  0.84934812    -0.06800
C1298       C  0.11767096  0.96630168  0.86151609    -0.17900
C1299       C  0.13618290  0.96670474  0.88462057     0.10400
C1300       C  0.14476427  0.49422429  0.89684951    -0.06700
C1301       C  0.13436027  0.51964482  0.88466625    -0.17900
C1302       C  0.11664489  0.51917482  0.86102593     0.10400
S1303       S  0.14912722  0.93253660  0.89687079    -0.32900
S1304       S  0.10617295  0.55323452  0.84623034    -0.32900
H1305       H  0.10493150  0.54370762  0.81804472     0.28500
H1306       H  0.17760845  0.94096250  0.89645572     0.28400
H1307       H  0.11096721  0.94586623  0.85297629     0.19000
H1308       H  0.14052223  0.54021697  0.89327893     0.19000
C1309       C  0.39218139  0.00636662  0.65222944    -0.06800
C1310       C  0.38505370  0.53126709  0.63769308    -0.17900
C1311       C  0.36858683  0.53100214  0.61304955     0.10400
C1312       C  0.35778260  0.00484293  0.60288952    -0.06700
C1313       C  0.36549315  0.97946720  0.61721852    -0.17900
C1314       C  0.38242366  0.97992995  0.64152591     0.10400
S1315       S  0.36196827  0.56520854  0.59666576    -0.32900
S1316       S  0.39014446  0.94606024  0.65836118    -0.32900
H1317       H  0.39181952  0.95703908  0.68600092     0.28500
H1318       H  0.37306256  0.55655588  0.57043519     0.28400
H1319       H  0.39321007  0.55151440  0.64536658     0.19000
H1320       H  0.35781154  0.95894677  0.60980781     0.19000
C1321       C  0.49342913  0.87068773  0.58891900    -0.06800
C1322       C  0.47798647  0.86706606  0.61397510    -0.17900
C1323       C  0.48000594  0.88654659  0.63624120     0.10400
C1324       C  0.99755128  0.91178761  0.63201165    -0.06700
C1325       C  0.01219888  0.91604052  0.60662878    -0.17900
C1326       C  0.00956116  0.89655236  0.58410841     0.10400
S1327       S  0.45933766  0.87928458  0.66748372    -0.32900
S1328       S  0.02878037  0.90425354  0.55217193    -0.32900
H1329       H  0.00818264  0.89297081  0.53386787     0.28500
H1330       H  0.45369946  0.90801719  0.67438412     0.28400
H1331       H  0.46473706  0.84838161  0.61664912     0.19000
H1332       H  0.02577257  0.93455221  0.60437323     0.19000
C1333       C  0.50159535  0.58871427  0.86887752    -0.06800
C1334       C  0.48641024  0.58518562  0.89405801    -0.17900
C1335       C  0.48812612  0.60564801  0.91580679     0.10400
C1336       C  0.00658649  0.62834220  0.91409356    -0.06700
C1337       C  0.02650889  0.62787140  0.89212528    -0.17900
C1338       C  0.02437111  0.60856506  0.86971494     0.10400
S1339       S  0.46814357  0.59909801  0.94752458    -0.32900
S1340       S  0.05034329  0.61129253  0.84197531    -0.32900
H1341       H  0.03197478  0.60513802  0.81946324     0.28500
H1342       H  0.48780492  0.61190919  0.96587666     0.28400
H1343       H  0.47299905  0.56660217  0.89666914     0.19000
H1344       H  0.04307642  0.64379421  0.89139232     0.19000
O1345       O  0.97666074  0.02939139  0.21207115    -0.89000
C1346       C  0.95289891  0.01883091  0.29406224     0.87000
Mg1347     Mg  0.98241250  0.49356602  0.18384462     1.58100
O1348       O  0.52350491  0.03432645  0.28349294    -0.88700
O1349       O  0.00005559  0.06619922  0.22799990    -0.76100
C1350       C  0.56274575  0.39882737  0.25135439     0.92100
O1351       O  0.93679133  0.48128524  0.23805662    -0.75900
O1352       O  0.54225335  0.39990416  0.23404825    -0.83400
Mg1353     Mg  0.93764005  0.03070752  0.23529875     1.58000
C1354       C  0.58500697  0.98891493  0.32796387     0.92000
O1355       O  0.93223458  0.08045256  0.23435517    -0.81700
H1356       H  0.55354838  0.06091574  0.26985064    -0.07000
C1357       C  0.50775689  0.44868874  0.29517901     0.86900
O1358       O  0.52963509  0.49220815  0.19127620    -0.76200
O1359       O  0.96175227  0.03291487  0.27381485    -0.88900
O1360       O  0.56322014  0.00444683  0.33132777    -0.81700
C1361       C  0.00024653  0.06704495  0.34653438     0.92100
C1362       C  0.93802193  0.10130085  0.25092426     0.92000
Mg1363     Mg  0.56164515  0.46882697  0.26757978     1.58000
O1364       O  0.56782446  0.41925727  0.26862229    -0.81700
O1365       O  0.56278701  0.01876111  0.26476878    -0.75900
O1366       O  0.98836342  0.07535570  0.32376578    -0.81700
O1367       O  0.91191852  0.02789135  0.19438718    -0.83400
O1368       O  0.51221313  0.42303180  0.17976597    -0.81800
C1369       C  0.54683242  0.03904252  0.27287079     0.86400
O1370       O  0.53759775  0.46636489  0.22909301    -0.88900
O1371       O  0.52237044  0.47003440  0.29067067    -0.89000
O1372       O  0.49942043  0.43281905  0.27510792    -0.76100
Mg1373     Mg  0.99252865  0.06690122  0.27600256     1.58000
O1374       O  0.51200875  0.04252827  0.34898636    -0.83400
H1375       H  0.99778671  0.05575150  0.18640319    -0.07200
O1376       O  0.97560811  0.46478115  0.21896193    -0.88700
H1377       H  0.94556356  0.43892004  0.23388262    -0.07000
H1378       H  0.56883925  0.48322398  0.20617888    -0.07200
C1379       C  0.95242951  0.46062864  0.23016762     0.86400
C1380       C  0.99147546  0.05065011  0.20777074     0.87000
C1381       C  0.54636419  0.48030531  0.20870715     0.87000
H1382       H  0.50141225  0.44378391  0.31659162    -0.07200
O1383       O  0.96954482  0.00639013  0.31120122    -0.76200
Mg1384     Mg  0.50725357  0.43195712  0.22719754     1.58000
H1385       H  0.93040249  0.01623120  0.29668800    -0.07200
C1386       C  0.91438179  0.50949130  0.17429223     0.92000
O1387       O  0.98736070  0.45646754  0.15348489    -0.83400
C1388       C  0.50008377  0.43076955  0.15698366     0.92100
O1389       O  0.95792480  0.09981198  0.26898882    -0.83400
Mg1390     Mg  0.51688691  0.00534673  0.31855198     1.58200
O1391       O  0.93608595  0.49377933  0.17138666    -0.81700
O1392       O  0.58704621  0.47180682  0.30845663    -0.83400
O1393       O  0.49637921  0.27386819  0.04873693    -0.89000
C1394       C  0.93417292  0.26378844  0.48782528     0.87000
Mg1395     Mg  0.53468359  0.29751002  0.04004854     1.58100
O1396       O  0.97606682  0.20240294  0.00164190    -0.88700
O1397       O  0.98287121  0.23228930  0.06171338    -0.76100
C1398       C  0.58247586  0.24531705  0.41936692     0.92100
O1399       O  0.97654062  0.31877499  0.99869862    -0.75900
O1400       O  0.57991566  0.26838883  0.43336280    -0.83400
Mg1401     Mg  0.95593170  0.29594338  0.03649939     1.58000
C1402       C  0.50530486  0.15457673  0.43187653     0.92000
O1403       O  0.92903082  0.27871165  0.07366454    -0.81700
H1404       H  0.48924907  0.17156030  0.02718208    -0.07000
C1405       C  0.99763148  0.24938478  0.43260806     0.86900
O1406       O  0.55903360  0.25585518  0.03108840    -0.76200
O1407       O  0.94586114  0.25907646  0.01084126    -0.88900
O1408       O  0.98226239  0.16246431  0.44336554    -0.81700
C1409       C  0.90374376  0.18316500  0.48730759     0.92100
C1410       C  0.91355693  0.25702080  0.07885000     0.92000
Mg1411     Mg  0.53935096  0.20741632  0.46121772     1.58000
O1412       O  0.56629340  0.22404920  0.42391927    -0.81700
O1413       O  0.51838985  0.18479883  0.49877978    -0.75900
O1414       O  0.90859556  0.19942037  0.00856201    -0.81700
O1415       O  0.96776284  0.33387881  0.06414578    -0.83400
O1416       O  0.58803113  0.30291605  0.48911433    -0.81800
C1417       C  0.49405355  0.18560404  0.00966019     0.86400
O1418       O  0.54967712  0.24406113  0.48681912    -0.88900
O1419       O  0.99995487  0.22870915  0.44877690    -0.89000
O1420       O  0.51300493  0.27167719  0.43634740    -0.76100
Mg1421     Mg  0.94678105  0.21815727  0.03237750     1.58000
O1422       O  0.92208031  0.18019907  0.46792610    -0.83400
H1423       H  0.51352970  0.25328777  0.08164664    -0.07200
O1424       O  0.52079949  0.30087873  0.49684114    -0.88700
H1425       H  0.00556469  0.33311151  0.47089132    -0.07000
H1426       H  0.57631041  0.22157290  0.01120101    -0.07200
C1427       C  0.00115748  0.31876254  0.48828023     0.86400
C1428       C  0.49817055  0.25299352  0.06473060     0.87000
C1429       C  0.56252505  0.23994572  0.00962439     0.87000
H1430       H  0.98222826  0.24853422  0.41573623    -0.07200
O1431       O  0.93788932  0.24742660  0.46666522    -0.76200
Mg1432     Mg  0.54944024  0.28496133  0.46557305     1.58000
H1433       H  0.92074301  0.28237956  0.48558834    -0.07200
C1434       C  0.99022798  0.34874255  0.06606803     0.92000
O1435       O  0.57482307  0.32271618  0.03013138    -0.83400
C1436       C  0.59292073  0.31983086  0.01047534     0.92100
O1437       O  0.91606858  0.23400981  0.06475732    -0.83400
Mg1438     Mg  0.96194831  0.20528701  0.45780369     1.58200
O1439       O  0.51479113  0.33993405  0.05498928    -0.81700
O1440       O  0.52784338  0.16916596  0.43442039    -0.83400
O1441       O  0.77412823  0.20070346  0.24732046    -0.89000
C1442       C  0.75557075  0.24761781  0.31716208     0.87000
Mg1443     Mg  0.80008974  0.21691106  0.21391102     1.58100
O1444       O  0.69986704  0.24127975  0.26798373    -0.88700
O1445       O  0.73186570  0.18307280  0.25342070    -0.76100
C1446       C  0.74814428  0.34545648  0.18266267     0.92100
O1447       O  0.81259422  0.24742493  0.27845411    -0.75900
O1448       O  0.77182930  0.33250535  0.18342572    -0.83400
Mg1449     Mg  0.79072394  0.20475527  0.28938913     1.58000
C1450       C  0.65371831  0.31572587  0.24741357     0.92000
O1451       O  0.77283899  0.16150802  0.30484400    -0.81700
H1452       H  0.67294825  0.21706091  0.24595246    -0.07000
C1453       C  0.74544715  0.31590134  0.26170895     0.86900
O1454       O  0.76115453  0.22923207  0.18761231    -0.76200
O1455       O  0.75262375  0.22682816  0.30131148    -0.88900
O1456       O  0.66106074  0.30038572  0.26839800    -0.81700
C1457       C  0.67397982  0.24379585  0.33825531     0.92100
C1458       C  0.75106966  0.15217661  0.31774790     0.92000
Mg1459     Mg  0.70972771  0.29384973  0.21307912     1.58000
O1460       O  0.72679967  0.33651463  0.19635529    -0.81700
O1461       O  0.68785943  0.25147949  0.22445658    -0.75900
O1462       O  0.68911825  0.22188651  0.33243227    -0.81700
O1463       O  0.83130794  0.18145609  0.27699561    -0.83400
O1464       O  0.81078931  0.27782230  0.17053275    -0.81800
C1465       C  0.68613497  0.23592511  0.24641392     0.86400
O1466       O  0.74803660  0.27188695  0.20151597    -0.88900
O1467       O  0.72704835  0.29851500  0.25495186    -0.89000
O1468       O  0.76891907  0.31687496  0.24894265    -0.76100
Mg1469     Mg  0.71329757  0.20496803  0.29280411     1.58000
O1470       O  0.67460970  0.26636511  0.32334490    -0.83400
H1471       H  0.75850114  0.16993822  0.22247473    -0.07200
O1472       O  0.80112705  0.25823542  0.23481931    -0.88700
H1473       H  0.82752637  0.28230410  0.25766258    -0.07000
H1474       H  0.72886593  0.25142338  0.16977168    -0.07200
C1475       C  0.81446618  0.26336822  0.25672673     0.86400
C1476       C  0.75527333  0.18384463  0.24044618     0.87000
C1477       C  0.74547144  0.25119691  0.18546168     0.87000
H1478       H  0.74180731  0.32998625  0.27944794    -0.07200
O1479       O  0.74034834  0.26987519  0.31475370    -0.76200
Mg1480     Mg  0.78715334  0.29452068  0.20984836     1.58000
H1481       H  0.77219387  0.24723888  0.33284026    -0.07200
C1482       C  0.84788713  0.18439202  0.25603090     0.92000
O1483       O  0.82673673  0.23350514  0.17834739    -0.83400
C1484       C  0.82618689  0.25645134  0.16388337     0.92100
O1485       O  0.72808288  0.16637624  0.31835616    -0.83400
Mg1486     Mg  0.70154218  0.28258045  0.28849793     1.58200
O1487       O  0.84103421  0.19967476  0.23470367    -0.81700
O1488       O  0.66927601  0.31759469  0.22553773    -0.83400
O1489       O  0.73465738  0.49086625  0.44841464    -0.89000
C1490       C  0.74210411  0.06488669  0.99458598     0.87000
Mg1491     Mg  0.70822387  0.45590733  0.46187684     1.58100
O1492       O  0.80129055  0.01952112  0.49896776    -0.88700
O1493       O  0.77921471  0.99937516  0.43805863    -0.76100
C1494       C  0.74255239  0.43341947  0.09657315     0.92100
O1495       O  0.68766379  0.02115814  0.48641591    -0.75900
O1496       O  0.72133830  0.43326923  0.08003576    -0.83400
Mg1497     Mg  0.71568032  0.03243261  0.44839831     1.58000
C1498       C  0.83613015  0.50343626  0.08024628     0.92000
O1499       O  0.73821096  0.04879147  0.40837938    -0.81700
H1500       H  0.83352134  0.49812193  0.48038415    -0.07000
C1501       C  0.74478254  0.01348383  0.06400253     0.86900
O1502       O  0.74655616  0.43238980  0.48080425    -0.76200
O1503       O  0.74864497  0.04750852  0.47578170    -0.88900
O1504       O  0.83106369  0.02468516  0.06366991    -0.81700
C1505       C  0.82072484  0.09338533  0.99939933     0.92100
C1506       C  0.75986532  0.06384490  0.40264789     0.92000
Mg1507     Mg  0.78670070  0.46513814  0.05055123     1.58000
O1508       O  0.76484588  0.44711962  0.09020919    -0.81700
O1509       O  0.81447562  0.47678326  0.01256022    -0.75900
O1510       O  0.80748840  0.08403134  0.47770334    -0.81700
O1511       O  0.68175352  0.01625158  0.41949260    -0.83400
O1512       O  0.69368732  0.41450380  0.02201130    -0.81800
C1513       C  0.81739490  0.49811514  0.49650913     0.86400
O1514       O  0.75311896  0.45071929  0.02350552    -0.88900
O1515       O  0.76683238  0.00724113  0.05152572    -0.89000
O1516       O  0.72306747  0.49900838  0.06167865    -0.76100
Mg1517     Mg  0.79094302  0.04155753  0.46030428     1.58000
O1518       O  0.82035374  0.08018612  0.02304846    -0.83400
H1519       H  0.75637760  0.46560064  0.42219867    -0.07200
O1520       O  0.70048643  0.47942052  0.00103024    -0.88700
H1521       H  0.66865958  0.99938515  0.01909328    -0.07000
H1522       H  0.77698721  0.41827739  0.50767229    -0.07200
C1523       C  0.68475658  0.99914673  0.00292560     0.86400
C1524       C  0.75631265  0.48451637  0.43536106     0.87000
C1525       C  0.75958412  0.43284758  0.50428773     0.87000
H1526       H  0.74420236  0.03257701  0.07689986    -0.07200
O1527       O  0.75478474  0.06564623  0.01823932    -0.76200
Mg1528     Mg  0.71086158  0.45704559  0.03946882     1.58000
H1529       H  0.72471395  0.07939753  0.99077374    -0.07200
C1530       C  0.66633554  0.99400591  0.41927507     0.92000
O1531       O  0.68073353  0.41856766  0.47656615    -0.83400
C1532       C  0.68056829  0.40475116  0.49983169     0.92100
O1533       O  0.78040051  0.06548907  0.41986188    -0.83400
Mg1534     Mg  0.79296100  0.04255567  0.03797736     1.58200
O1535       O  0.66949481  0.47444878  0.43777099    -0.81700
O1536       O  0.82121827  0.48081633  0.07934244    -0.83400
C1537       C  0.74453732  0.37049967  0.16368600    -0.06800
C1538       C  0.76540628  0.39171408  0.16266946    -0.17900
C1539       C  0.76410411  0.41415971  0.14288301     0.10400
C1540       C  0.74209621  0.41479701  0.12238910    -0.06700
C1541       C  0.72070057  0.39401126  0.12434568    -0.17900
C1542       C  0.72154479  0.37226469  0.14466836     0.10400
S1543       S  0.79124068  0.44105143  0.14523659    -0.32900
S1544       S  0.69430073  0.34542664  0.14301051    -0.32900
H1545       H  0.68318344  0.35295264  0.16955213     0.28500
H1546       H  0.77264437  0.46405551  0.14024802     0.28400
H1547       H  0.78289136  0.39079633  0.17744115     0.19000
H1548       H  0.70364704  0.39373574  0.10906524     0.19000
C1549       C  0.75369309  0.12527735  0.33457077    -0.06800
C1550       C  0.78033921  0.11811128  0.34570205    -0.17900
C1551       C  0.78361398  0.09671806  0.36639419     0.10400
C1552       C  0.75952353  0.08200187  0.37655516    -0.06700
C1553       C  0.73333403  0.08739730  0.36339817    -0.17900
C1554       C  0.73022516  0.10847650  0.34251550     0.10400
S1555       S  0.81867995  0.08913044  0.37966802    -0.32900
S1556       S  0.69564827  0.11288651  0.32713969    -0.32900
H1557       H  0.70568933  0.11966386  0.29996589     0.28500
H1558       H  0.83345400  0.10850663  0.36239342     0.28400
H1559       H  0.79856257  0.13039163  0.33927172     0.19000
H1560       H  0.71469590  0.07590633  0.37014636     0.19000
C1561       C  0.87837593  0.16413423  0.48806714    -0.06800
C1562       C  0.86442276  0.16036385  0.01379940    -0.17900
C1563       C  0.84390924  0.13911954  0.01758749     0.10400
C1564       C  0.83844182  0.11942002  0.99566073    -0.06700
C1565       C  0.84979706  0.12528130  0.46901767    -0.17900
C1566       C  0.86977509  0.14708924  0.46483260     0.10400
S1567       S  0.82535142  0.13850918  0.05080096    -0.32900
S1568       S  0.88393418  0.15246460  0.42972345    -0.32900
H1569       H  0.86568530  0.13365858  0.41539567     0.28500
H1570       H  0.79954614  0.12942165  0.03913596     0.28400
H1571       H  0.86906888  0.17438069  0.03144458     0.19000
H1572       H  0.84461090  0.11126231  0.45154625     0.19000
C1573       C  0.66233879  0.37896647  0.50303345    -0.06800
C1574       C  0.64952427  0.37473594  0.02999597    -0.17900
C1575       C  0.62847350  0.35400328  0.03361121     0.10400
C1576       C  0.61910927  0.33775236  0.01011157    -0.06700
C1577       C  0.63324049  0.34078550  0.48361881    -0.17900
C1578       C  0.65480943  0.36103431  0.48019576     0.10400
S1579       S  0.61439472  0.34990452  0.06874499    -0.32900
S1580       S  0.67184145  0.36278318  0.44618098    -0.32900
H1581       H  0.69858762  0.36979336  0.45709948     0.28500
H1582       H  0.61326956  0.31980701  0.06730478     0.28400
H1583       H  0.65523057  0.38795475  0.04793526     0.19000
H1584       H  0.62695322  0.32833215  0.46535334     0.19000
C1585       C  0.65348146  0.24295017  0.36182431    -0.06800
C1586       C  0.63780781  0.21787964  0.36642291    -0.17900
C1587       C  0.61429195  0.21762918  0.38459550     0.10400
C1588       C  0.60600964  0.24337047  0.39841303    -0.06700
C1589       C  0.62240797  0.26812657  0.39410386    -0.17900
C1590       C  0.64608274  0.26805031  0.37671022     0.10400
S1591       S  0.59557241  0.18422777  0.38953462    -0.32900
S1592       S  0.66642000  0.30069049  0.37517194    -0.32900
H1593       H  0.69259695  0.28690222  0.37167330     0.28500
H1594       H  0.61092268  0.16774024  0.36999753     0.28400
H1595       H  0.64345978  0.19866876  0.35492520     0.19000
H1596       H  0.61720892  0.28792054  0.40486401     0.19000
C1597       C  0.84544377  0.25868848  0.13959871    -0.06800
C1598       C  0.86467829  0.28146603  0.13885656    -0.17900
C1599       C  0.88744926  0.28150839  0.11998202     0.10400
C1600       C  0.89082481  0.25847598  0.10065034    -0.06700
C1601       C  0.87047926  0.23642851  0.10077945    -0.17900
C1602       C  0.84796119  0.23639971  0.11975288     0.10400
S1603       S  0.91186827  0.31087687  0.12298040    -0.32900
S1604       S  0.82281038  0.20751251  0.11731374    -0.32900
H1605       H  0.79963372  0.22339046  0.12730623     0.28500
H1606       H  0.93572383  0.29295759  0.12457801     0.28400
H1607       H  0.86295896  0.29853937  0.15429831     0.19000
H1608       H  0.87180023  0.21897749  0.08574247     0.19000
C1609       C  0.87484258  0.16773880  0.25510568    -0.06800
C1610       C  0.88503942  0.15857343  0.22862049    -0.17900
C1611       C  0.90708120  0.13855610  0.22640078     0.10400
C1612       C  0.91925573  0.12688890  0.25114993    -0.06700
C1613       C  0.91066483  0.13772055  0.27750172    -0.17900
C1614       C  0.88897916  0.15806930  0.27974962     0.10400
S1615       S  0.91861360  0.12868128  0.19143353    -0.32900
S1616       S  0.88039806  0.17060909  0.31473144    -0.32900
H1617       H  0.87427029  0.19880415  0.30607213     0.28500
H1618       H  0.94672057  0.12295464  0.19923861     0.28400
H1619       H  0.87504161  0.16614385  0.20938846     0.19000
H1620       H  0.92014044  0.12940192  0.29671022     0.19000
C1621       C  0.58255290  0.37410604  0.25018133    -0.06800
C1622       C  0.59401841  0.36335284  0.27537351    -0.17900
C1623       C  0.61563331  0.34277855  0.27524618     0.10400
C1624       C  0.62728546  0.33325568  0.24915197    -0.06700
C1625       C  0.61521757  0.34360650  0.22396181    -0.17900
C1626       C  0.59294578  0.36340298  0.22416756     0.10400
S1627       S  0.62851613  0.33145874  0.30932861    -0.32900
S1628       S  0.58081977  0.37646812  0.19041032    -0.32900
H1629       H  0.55340487  0.36563876  0.19422799     0.28500
H1630       H  0.62203267  0.30246353  0.30439624     0.28400
H1631       H  0.58634870  0.37141085  0.29543041     0.19000
H1632       H  0.62366462  0.33678449  0.20378198     0.19000
C1633       C  0.60714106  0.99036076  0.34984726    -0.06800
C1634       C  0.61558281  0.46569273  0.36364522    -0.17900
C1635       C  0.63423163  0.46601910  0.38665420     0.10400
C1636       C  0.64445836  0.99174269  0.39673574    -0.06700
C1637       C  0.63522891  0.01719976  0.38360829    -0.17900
C1638       C  0.61710924  0.01678297  0.36026759     0.10400
S1639       S  0.64556356  0.43169814  0.40002518    -0.32900
S1640       S  0.60822124  0.05070612  0.34414689    -0.32900
H1641       H  0.60586010  0.04005840  0.31642554     0.28500
H1642       H  0.67444074  0.43836913  0.39820937     0.28400
H1643       H  0.60788083  0.44531365  0.35584475     0.19000
H1644       H  0.64265451  0.03775648  0.39118778     0.19000
C1645       C  0.89254103  0.50772635  0.15209779    -0.06800
C1646       C  0.88502444  0.03321777  0.13775170    -0.17900
C1647       C  0.86833138  0.03253484  0.11327127     0.10400
C1648       C  0.85792601  0.50568908  0.10303884    -0.06700
C1649       C  0.86575569  0.48045929  0.11752086    -0.17900
C1650       C  0.88275056  0.48118702  0.14173811     0.10400
S1651       S  0.86180010  0.06641167  0.09619802    -0.32900
S1652       S  0.89053611  0.44752076  0.15893235    -0.32900
H1653       H  0.89252797  0.45884387  0.18641646     0.28500
H1654       H  0.87282480  0.05716908  0.07013720     0.28400
H1655       H  0.89356026  0.05352451  0.14483403     0.19000
H1656       H  0.85810931  0.45985250  0.11031079     0.19000
C1657       C  0.99120597  0.37274231  0.08667831    -0.06800
C1658       C  0.97640217  0.36904673  0.11210039    -0.17900
C1659       C  0.97921346  0.38828363  0.13448613     0.10400
C1660       C  0.49804781  0.40998540  0.13374956    -0.06700
C1661       C  0.51220354  0.41480181  0.10819697    -0.17900
C1662       C  0.50998210  0.39525105  0.08572496     0.10400
S1663       S  0.95932950  0.38087905  0.16619566    -0.32900
S1664       S  0.52876613  0.40347739  0.05365816    -0.32900
H1665       H  0.50828975  0.39180290  0.03546477     0.28500
H1666       H  0.95381791  0.40960003  0.17325432     0.28400
H1667       H  0.96313396  0.35041360  0.11501132     0.19000
H1668       H  0.52505840  0.43381454  0.10577169     0.19000
C1669       C  0.00292751  0.08783475  0.36983031    -0.06800
C1670       C  0.98816105  0.08407161  0.39524705    -0.17900
C1671       C  0.98961737  0.10474190  0.41686632     0.10400
C1672       C  0.50551607  0.12946620  0.41272895    -0.06700
C1673       C  0.52101306  0.13213247  0.38762349    -0.17900
C1674       C  0.51947566  0.11150163  0.36640531     0.10400
S1675       S  0.97040220  0.09780857  0.44897808    -0.32900
S1676       S  0.53986177  0.11775545  0.33477283    -0.32900
H1677       H  0.54613404  0.08882478  0.32935167     0.28500
H1678       H  0.98968845  0.11183810  0.46685456     0.28400
H1679       H  0.97520400  0.06519821  0.39811130     0.19000
H1680       H  0.53376062  0.15103180  0.38397414     0.19000
O1681       O  0.97700542  0.02923534  0.71189225    -0.89000
C1682       C  0.95287031  0.01912678  0.79387218     0.87000
Mg1683     Mg  0.98310919  0.49360105  0.68367919     1.58100
O1684       O  0.52414904  0.03474819  0.78350704    -0.88700
O1685       O  0.00013427  0.06627072  0.72766473    -0.76100
C1686       C  0.56297360  0.39882223  0.75184572     0.92100
O1687       O  0.93668288  0.48122352  0.73718692    -0.75900
O1688       O  0.54237935  0.39977244  0.73465158    -0.83400
Mg1689     Mg  0.93780615  0.03062536  0.73496824     1.58000
C1690       C  0.58483232  0.98926649  0.82895303     0.92000
O1691       O  0.93223966  0.08036300  0.73401894    -0.81700
H1692       H  0.55447163  0.06071250  0.76932521    -0.07000
C1693       C  0.50819557  0.44891416  0.79550756     0.86900
O1694       O  0.52973177  0.49174456  0.69124286    -0.76200
O1695       O  0.96180297  0.03304684  0.77355375    -0.88900
O1696       O  0.56323590  0.00514034  0.83196940    -0.81700
C1697       C  0.00022076  0.06771596  0.84611652     0.92100
C1698       C  0.93797738  0.10129992  0.75050430     0.92000
Mg1699     Mg  0.56193117  0.46892808  0.76758626     1.58000
O1700       O  0.56817209  0.41937328  0.76893604    -0.81700
O1701       O  0.56327697  0.01836203  0.76508136    -0.75900
O1702       O  0.98830976  0.07599314  0.82336323    -0.81700
O1703       O  0.91219467  0.02759183  0.69400416    -0.83400
O1704       O  0.51209205  0.42245656  0.68025642    -0.81800
C1705       C  0.54752592  0.03897954  0.77278266     0.86400
O1706       O  0.53776891  0.46615090  0.72920021    -0.88900
O1707       O  0.52273935  0.47025410  0.79077013    -0.89000
O1708       O  0.49974870  0.43291439  0.77559002    -0.76100
Mg1709     Mg  0.99253277  0.06714546  0.77564987     1.58000
O1710       O  0.51220157  0.04369844  0.84881613    -0.83400
H1711       H  0.99800914  0.05558915  0.68611816    -0.07200
O1712       O  0.97596350  0.46503520  0.71892668    -0.88700
H1713       H  0.94567937  0.43891851  0.73289639    -0.07000
H1714       H  0.56896961  0.48274399  0.70604419    -0.07200
C1715       C  0.95255338  0.46068188  0.72952664     0.86400
C1716       C  0.99169582  0.05055942  0.70750279     0.87000
C1717       C  0.54649642  0.47991230  0.70868253     0.87000
H1718       H  0.50199223  0.44413987  0.81699116    -0.07200
O1719       O  0.96945691  0.00683046  0.81116238    -0.76200
Mg1720     Mg  0.50736973  0.43176224  0.72766487     1.58000
H1721       H  0.93036340  0.01655516  0.79644258    -0.07200
C1722       C  0.91507657  0.50953132  0.67341505     0.92000
O1723       O  0.98820397  0.45623523  0.65370185    -0.83400
C1724       C  0.50001101  0.43012380  0.65742165     0.92100
O1725       O  0.95791889  0.09995433  0.76852557    -0.83400
Mg1726     Mg  0.51702225  0.00622541  0.81883515     1.58200
O1727       O  0.93690192  0.49395438  0.67067203    -0.81700
O1728       O  0.58742645  0.47221674  0.80835979    -0.83400
O1729       O  0.49645882  0.27324320  0.54872676    -0.89000
C1730       C  0.93411302  0.26335052  0.98787475     0.87000
Mg1731     Mg  0.53477468  0.29687465  0.53995503     1.58100
O1732       O  0.97535436  0.20228031  0.50102727    -0.88700
O1733       O  0.98269028  0.23144576  0.56118622    -0.76100
C1734       C  0.58302551  0.24568036  0.91989038     0.92100
O1735       O  0.97693723  0.31914336  0.49961439    -0.75900
O1736       O  0.58046045  0.26879852  0.93380884    -0.83400
Mg1737     Mg  0.95642947  0.29568765  0.53705735     1.58000
C1738       C  0.50578005  0.15510295  0.93215987     0.92000
O1739       O  0.92960769  0.27818958  0.57415354    -0.81700
H1740       H  0.48908032  0.17098523  0.52684451    -0.07000
C1741       C  0.99847922  0.24889196  0.93262952     0.86900
O1742       O  0.55902935  0.25522529  0.53068137    -0.76200
O1743       O  0.94599810  0.25927671  0.51072292    -0.88900
O1744       O  0.98293576  0.16261179  0.94381852    -0.81700
C1745       C  0.90479461  0.18237000  0.98786927     0.92100
C1746       C  0.91367153  0.25674245  0.57885435     0.92000
Mg1747     Mg  0.53970313  0.20790274  0.96164663     1.58000
O1748       O  0.56677510  0.22446918  0.92443963    -0.81700
O1749       O  0.51863629  0.18532622  0.99917571    -0.75900
O1750       O  0.90771194  0.20048034  0.50775147    -0.81700
O1751       O  0.96858483  0.33312354  0.56524608    -0.83400
O1752       O  0.58823455  0.30334370  0.98954422    -0.81800
C1753       C  0.49383670  0.18506296  0.50933562     0.86400
O1754       O  0.54991791  0.24457521  0.98720809    -0.88900
O1755       O  0.00067599  0.22857242  0.94923169    -0.89000
O1756       O  0.51347855  0.27204847  0.93644034    -0.76100
Mg1757     Mg  0.94627521  0.21815765  0.53180630     1.58000
O1758       O  0.92309782  0.17998335  0.96841015    -0.83400
H1759       H  0.51368586  0.25244030  0.58146094    -0.07200
O1760       O  0.52091670  0.30135136  0.99687007    -0.88700
H1761       H  0.00512365  0.33234934  0.96974328    -0.07000
H1762       H  0.57617376  0.22097942  0.51061949    -0.07200
C1763       C  0.00080210  0.31835428  0.98743335     0.86400
C1764       C  0.49826359  0.25227297  0.56460112     0.87000
C1765       C  0.56239508  0.23936661  0.50915951     0.87000
H1766       H  0.98327925  0.24766197  0.91560002    -0.07200
O1767       O  0.93828582  0.24707411  0.96676553    -0.76200
Mg1768     Mg  0.54977056  0.28540088  0.96582114     1.58000
H1769       H  0.92044268  0.28174234  0.98550500    -0.07200
C1770       C  0.99118194  0.34775325  0.56733552     0.92000
O1771       O  0.57491652  0.32208164  0.52990278    -0.83400
C1772       C  0.59287005  0.31930149  0.51009361     0.92100
O1773       O  0.91573914  0.23401212  0.56428040    -0.83400
Mg1774     Mg  0.96270632  0.20520265  0.95829532     1.58200
O1775       O  0.51499126  0.33926750  0.55529082    -0.81700
O1776       O  0.52830611  0.16968889  0.93478855    -0.83400
O1777       O  0.77371185  0.20022327  0.74694306    -0.89000
C1778       C  0.75557887  0.24704622  0.81689825     0.87000
Mg1779     Mg  0.79974212  0.21647174  0.71355042     1.58100
O1780       O  0.69959346  0.24104721  0.76800297    -0.88700
O1781       O  0.73134302  0.18283733  0.75313130    -0.76100
C1782       C  0.74787067  0.34483759  0.68234483     0.92100
O1783       O  0.81226571  0.24681526  0.77814769    -0.75900
O1784       O  0.77153591  0.33186008  0.68308453    -0.83400
Mg1785     Mg  0.79038113  0.20412861  0.78902618     1.58000
C1786       C  0.65374369  0.31554594  0.74767124     0.92000
O1787       O  0.77234236  0.16086661  0.80449735    -0.81700
H1788       H  0.67247085  0.21691551  0.74613382    -0.07000
C1789       C  0.74533095  0.31557216  0.76140350     0.86900
O1790       O  0.76084142  0.22881491  0.68719573    -0.76200
O1791       O  0.75241096  0.22628523  0.80105877    -0.88900
O1792       O  0.66123272  0.30035888  0.76870140    -0.81700
C1793       C  0.67421778  0.24372879  0.83846409     0.92100
C1794       C  0.75056728  0.15169774  0.81753337     0.92000
Mg1795     Mg  0.70947266  0.29341801  0.71298802     1.58000
O1796       O  0.72654943  0.33600558  0.69613949    -0.81700
O1797       O  0.68752021  0.25115886  0.72447505    -0.75900
O1798       O  0.68908542  0.22168707  0.83242963    -0.81700
O1799       O  0.83101369  0.18086056  0.77657828    -0.83400
O1800       O  0.81062406  0.27741254  0.67028931    -0.81800
C1801       C  0.68575609  0.23571024  0.74649654     0.86400
O1802       O  0.74773303  0.27140535  0.70126879    -0.88900
O1803       O  0.72699389  0.29807884  0.75477855    -0.89000
O1804       O  0.76876209  0.31654992  0.74858065    -0.76100
Mg1805     Mg  0.71296666  0.20466558  0.79267069     1.58000
O1806       O  0.67492686  0.26633703  0.82361365    -0.83400
H1807       H  0.75776783  0.16970352  0.72200103    -0.07200
O1808       O  0.80079582  0.25775753  0.73454259    -0.88700
H1809       H  0.82716110  0.28178197  0.75747166    -0.07000
H1810       H  0.72856039  0.25108648  0.66943125    -0.07200
C1811       C  0.81411786  0.26283758  0.75647319     0.86400
C1812       C  0.75470632  0.18353444  0.74005805     0.87000
C1813       C  0.74515703  0.25078635  0.68512915     0.87000
H1814       H  0.74167661  0.32974496  0.77907155    -0.07200
O1815       O  0.74054073  0.26943053  0.81453609    -0.76200
Mg1816     Mg  0.78688823  0.29403181  0.70955372     1.58000
H1817       H  0.77227305  0.24653883  0.83249700    -0.07200
C1818       C  0.84757448  0.18399792  0.75561923     0.92000
O1819       O  0.82652712  0.23308206  0.67805596    -0.83400
C1820       C  0.82607523  0.25607997  0.66367255     0.92100
O1821       O  0.72764266  0.16599437  0.81813335    -0.83400
Mg1822     Mg  0.70167330  0.28233518  0.78852309     1.58200
O1823       O  0.84064366  0.19931782  0.73435447    -0.81700
O1824       O  0.66912415  0.31723138  0.72565093    -0.83400
O1825       O  0.73478664  0.49133311  0.94879322    -0.89000
C1826       C  0.74193961  0.06472727  0.49441677     0.87000
Mg1827     Mg  0.70824403  0.45641495  0.96222409     1.58100
O1828       O  0.80125754  0.01940922  0.99917887    -0.88700
O1829       O  0.77891607  0.99915611  0.93836103    -0.76100
C1830       C  0.74261593  0.43258350  0.59606774     0.92100
O1831       O  0.68772379  0.02092652  0.98712406    -0.75900
O1832       O  0.72146094  0.43234046  0.57947254    -0.83400
Mg1833     Mg  0.71558631  0.03211256  0.94899471     1.58000
C1834       C  0.83613943  0.50299380  0.57989502     0.92000
O1835       O  0.73790725  0.04850011  0.90873342    -0.81700
H1836       H  0.83337956  0.49862080  0.98070648    -0.07000
C1837       C  0.74496362  0.01299444  0.56384042     0.86900
O1838       O  0.74643240  0.43285102  0.98131994    -0.76200
O1839       O  0.74866297  0.04741857  0.97613333    -0.88900
O1840       O  0.83106225  0.02460264  0.56344705    -0.81700
C1841       C  0.82022863  0.09380963  0.49935865     0.92100
C1842       C  0.75948927  0.06367198  0.90296630     0.92000
Mg1843     Mg  0.78680702  0.46456934  0.55022362     1.58000
O1844       O  0.76484639  0.44643615  0.58979538    -0.81700
O1845       O  0.81466352  0.47631394  0.51229190    -0.75900
O1846       O  0.80784900  0.08374074  0.97775846    -0.81700
O1847       O  0.68157797  0.01569161  0.92044103    -0.83400
O1848       O  0.69395210  0.41369636  0.52148944    -0.81800
C1849       C  0.81729677  0.49863841  0.99687513     0.86400
O1850       O  0.75330250  0.45007589  0.52306702    -0.88900
O1851       O  0.76695583  0.00693475  0.55120123    -0.89000
O1852       O  0.72317049  0.49819360  0.56139097    -0.76100
Mg1853     Mg  0.79086322  0.04135659  0.96049127     1.58000
O1854       O  0.82004811  0.08047243  0.52295203    -0.83400
H1855       H  0.75663801  0.46606973  0.92267954    -0.07200
O1856       O  0.70059804  0.47877637  0.50075153    -0.88700
H1857       H  0.66880749  0.99943921  0.51840477    -0.07000
H1858       H  0.77670409  0.41872688  0.00835578    -0.07200
C1859       C  0.68490002  0.99936389  0.50223067     0.86400
C1860       C  0.75649560  0.48500451  0.93581576     0.87000
C1861       C  0.75937690  0.43335917  0.00484178     0.87000
H1862       H  0.74442877  0.03187786  0.57703478    -0.07200
O1863       O  0.75457576  0.06534727  0.51810197    -0.76200
Mg1864     Mg  0.71102017  0.45625340  0.53905007     1.58000
H1865       H  0.72443629  0.07913194  0.49073658    -0.07200
C1866       C  0.66618067  0.99343062  0.92018847     0.92000
O1867       O  0.68069839  0.41910002  0.97697581    -0.83400
C1868       C  0.68044050  0.40541493  0.00032549     0.92100
O1869       O  0.78008650  0.06531006  0.92011052    -0.83400
Mg1870     Mg  0.79288806  0.04247487  0.53779460     1.58200
O1871       O  0.66964815  0.47494756  0.93782921    -0.81700
O1872       O  0.82119885  0.48038038  0.57918379    -0.83400
C1873       C  0.74431642  0.36982732  0.66332933    -0.06800
C1874       C  0.76538316  0.39081421  0.66213495    -0.17900
C1875       C  0.76423765  0.41316371  0.64226078     0.10400
C1876       C  0.74213444  0.41396320  0.62187912    -0.06700
C1877       C  0.72055078  0.39337967  0.62398704    -0.17900
C1878       C  0.72127275  0.37170214  0.64438867     0.10400
S1879       S  0.79176755  0.43965799  0.64432177    -0.32900
S1880       S  0.69381202  0.34507422  0.64292512    -0.32900
H1881       H  0.68295046  0.35264450  0.66956044     0.28500
H1882       H  0.77337429  0.46292490  0.63979610     0.28400
H1883       H  0.78293414  0.38976871  0.67682080     0.19000
H1884       H  0.70342704  0.39321569  0.60878373     0.19000
C1885       C  0.75314956  0.12493580  0.83459891    -0.06800
C1886       C  0.77977973  0.11793325  0.84584568    -0.17900
C1887       C  0.78308699  0.09674373  0.86673563     0.10400
C1888       C  0.75904977  0.08191157  0.87689596    -0.06700
C1889       C  0.73284028  0.08722907  0.86373393    -0.17900
C1890       C  0.72968236  0.10821511  0.84274241     0.10400
S1891       S  0.81814918  0.08962923  0.88028175    -0.32900
S1892       S  0.69503958  0.11262798  0.82751203    -0.32900
H1893       H  0.70495321  0.11924110  0.80025364     0.28500
H1894       H  0.83279357  0.10944532  0.86338600     0.28400
H1895       H  0.79797405  0.13021739  0.83934390     0.19000
H1896       H  0.71422720  0.07574152  0.87055646     0.19000
C1897       C  0.87961724  0.16305339  0.98830095    -0.06800
C1898       C  0.86425442  0.16056196  0.51406709    -0.17900
C1899       C  0.84384797  0.13922101  0.51796727     0.10400
C1900       C  0.83752707  0.12020706  0.49566079    -0.06700
C1901       C  0.85195727  0.12338311  0.96948146    -0.17900
C1902       C  0.87218794  0.14495202  0.96539314     0.10400
S1903       S  0.82653870  0.13762525  0.55181843    -0.32900
S1904       S  0.88820992  0.14849660  0.93084538    -0.32900
H1905       H  0.87187460  0.12776403  0.91680568     0.28500
H1906       H  0.80024126  0.12921651  0.54076979     0.28400
H1907       H  0.86972946  0.17390152  0.53198601     0.19000
H1908       H  0.84748954  0.10866655  0.95237583     0.19000
C1909       C  0.66227187  0.37959729  0.00357783    -0.06800
C1910       C  0.64979622  0.37394075  0.52952029    -0.17900
C1911       C  0.62868060  0.35327693  0.53315391     0.10400
C1912       C  0.61906468  0.33722650  0.50961936    -0.06700
C1913       C  0.63352305  0.34112348  0.98422021    -0.17900
C1914       C  0.65505289  0.36141867  0.98083419     0.10400
S1915       S  0.61483978  0.34902082  0.56836222    -0.32900
S1916       S  0.67246084  0.36289471  0.94700115    -0.32900
H1917       H  0.69904637  0.37016411  0.95814722     0.28500
H1918       H  0.61364992  0.31893514  0.56677163     0.28400
H1919       H  0.65570859  0.38699090  0.54751391     0.19000
H1920       H  0.62745516  0.32848592  0.96600450     0.19000
C1921       C  0.65390410  0.24298082  0.86219866    -0.06800
C1922       C  0.63822161  0.21795242  0.86695951    -0.17900
C1923       C  0.61481602  0.21779158  0.88526563     0.10400
C1924       C  0.60659969  0.24360459  0.89899484    -0.06700
C1925       C  0.62306617  0.26829970  0.89460326    -0.17900
C1926       C  0.64668261  0.26811397  0.87712214     0.10400
S1927       S  0.59619191  0.18438591  0.89052988    -0.32900
S1928       S  0.66719474  0.30063762  0.87553567    -0.32900
H1929       H  0.69327415  0.28669427  0.87189754     0.28500
H1930       H  0.61140549  0.16781423  0.87095480     0.28400
H1931       H  0.64378043  0.19869515  0.85549217     0.19000
H1932       H  0.61796126  0.28812458  0.90535399     0.19000
C1933       C  0.84548118  0.25842099  0.63951952    -0.06800
C1934       C  0.86513978  0.28083927  0.63928758    -0.17900
C1935       C  0.88794560  0.28085772  0.62044763     0.10400
C1936       C  0.89093328  0.25818042  0.60065093    -0.06700
C1937       C  0.87018967  0.23651739  0.60030432    -0.17900
C1938       C  0.84764685  0.23650139  0.61924821     0.10400
S1939       S  0.91287812  0.30970988  0.62404738    -0.32900
S1940       S  0.82202626  0.20810150  0.61624586    -0.32900
H1941       H  0.79911089  0.22411821  0.62661524     0.28500
H1942       H  0.93640589  0.29132607  0.62535944     0.28400
H1943       H  0.86368938  0.29761723  0.65506851     0.19000
H1944       H  0.87122136  0.21935847  0.58492149     0.19000
C1945       C  0.87461526  0.16753421  0.75459151    -0.06800
C1946       C  0.88451654  0.15804244  0.72811397    -0.17900
C1947       C  0.90663656  0.13812537  0.72589894     0.10400
C1948       C  0.91914994  0.12685012  0.75065332    -0.06700
C1949       C  0.91088405  0.13808286  0.77696199    -0.17900
C1950       C  0.88915916  0.15840249  0.77917914     0.10400
S1951       S  0.91783728  0.12787301  0.69092961    -0.32900
S1952       S  0.88109957  0.17171949  0.81400714    -0.32900
H1953       H  0.87431207  0.19958506  0.80480699     0.28500
H1954       H  0.94607871  0.12249056  0.69848420     0.28400
H1955       H  0.87422642  0.16527508  0.70890953     0.19000
H1956       H  0.92066250  0.13013283  0.79616936     0.19000
C1957       C  0.58277212  0.37410925  0.75067362    -0.06800
C1958       C  0.59423900  0.36329830  0.77584132    -0.17900
C1959       C  0.61574463  0.34260194  0.77564980     0.10400
C1960       C  0.62736123  0.33312839  0.74951457    -0.06700
C1961       C  0.61529564  0.34356087  0.72436308    -0.17900
C1962       C  0.59307541  0.36339638  0.72463524     0.10400
S1963       S  0.62840570  0.33092070  0.80970252    -0.32900
S1964       S  0.58084872  0.37645160  0.69091347    -0.32900
H1965       H  0.55349054  0.36548718  0.69477311     0.28500
H1966       H  0.62199960  0.30196904  0.80442076     0.28400
H1967       H  0.58659909  0.37133681  0.79591745     0.19000
H1968       H  0.62368297  0.33674839  0.70415515     0.19000
C1969       C  0.60680744  0.99054358  0.85096985    -0.06800
C1970       C  0.61589107  0.46615895  0.86359020    -0.17900
C1971       C  0.63451623  0.46649355  0.88661518     0.10400
C1972       C  0.64417942  0.99139979  0.89777753    -0.06700
C1973       C  0.63498523  0.01700550  0.88489569    -0.17900
C1974       C  0.61684264  0.01685311  0.86158447     0.10400
S1975       S  0.64570704  0.43217488  0.90010576    -0.32900
S1976       S  0.60808134  0.05094547  0.84573766    -0.32900
H1977       H  0.60584426  0.04055834  0.81790981     0.28500
H1978       H  0.67460800  0.43875120  0.89833243     0.28400
H1979       H  0.60811103  0.44578259  0.85586005     0.19000
H1980       H  0.64248758  0.03747828  0.89262168     0.19000
C1981       C  0.89324897  0.50752907  0.65118842    -0.06800
C1982       C  0.88384363  0.03318940  0.63852571    -0.17900
C1983       C  0.86673167  0.03268651  0.61432925     0.10400
C1984       C  0.85797516  0.50542339  0.60260394    -0.06700
C1985       C  0.86685768  0.48014921  0.61635511    -0.17900
C1986       C  0.88415425  0.48090554  0.64036656     0.10400
S1987       S  0.85735422  0.06690026  0.59937052    -0.32900
S1988       S  0.89309810  0.44714151  0.65679327    -0.32900
H1989       H  0.89457618  0.45789775  0.68453365     0.28500
H1990       H  0.86953877  0.06050172  0.57300411     0.28400
H1991       H  0.89128084  0.05361633  0.64646393     0.19000
H1992       H  0.85979391  0.45947872  0.60873139     0.19000
C1993       C  0.99225825  0.37177663  0.58789842    -0.06800
C1994       C  0.97722809  0.36837311  0.61323004    -0.17900
C1995       C  0.97991452  0.38784161  0.63544080     0.10400
C1996       C  0.49806854  0.40928823  0.63420115    -0.06700
C1997       C  0.51230200  0.41410573  0.60868799    -0.17900
C1998       C  0.51016343  0.39455767  0.58619946     0.10400
S1999       S  0.95974180  0.38086650  0.66706859    -0.32900
S2000       S  0.52895651  0.40286245  0.55415974    -0.32900
H2001       H  0.50848171  0.39123094  0.53593732     0.28500
H2002       H  0.95436871  0.40968390  0.67384613     0.28400
H2003       H  0.96383984  0.34983548  0.61618589     0.19000
H2004       H  0.52513330  0.43313868  0.60629449     0.19000
C2005       C  0.00282132  0.08833893  0.86951629    -0.06800
C2006       C  0.98576495  0.08589523  0.89356955    -0.17900
C2007       C  0.98725290  0.10624031  0.91544554     0.10400
C2008       C  0.50595646  0.13017165  0.91279341    -0.06700
C2009       C  0.52146535  0.13302967  0.88771255    -0.17900
C2010       C  0.51980972  0.11264698  0.86626219     0.10400
S2011       S  0.96450863  0.10101425  0.94548486    -0.32900
S2012       S  0.54037038  0.11907214  0.83477835    -0.32900
H2013       H  0.54628005  0.09015790  0.82890408     0.28500
H2014       H  0.98388325  0.11176464  0.96537411     0.28400
H2015       H  0.97099466  0.06828130  0.89515455     0.19000
H2016       H  0.53433371  0.15188642  0.88427821     0.19000
O2017       O  0.97687413  0.52939442  0.21199773    -0.89000
C2018       C  0.95327984  0.51907538  0.29400430     0.87000
Mg2019     Mg  0.98191148  0.99363227  0.18385464     1.58100
O2020       O  0.52368998  0.53446589  0.28304210    -0.88700
O2021       O  0.00001584  0.56649263  0.22758086    -0.76100
C2022       C  0.56319406  0.89964766  0.24906480     0.92100
O2023       O  0.93647538  0.98128326  0.23797753    -0.75900
O2024       O  0.54289268  0.90103346  0.23154600    -0.83400
Mg2025     Mg  0.93782668  0.53068216  0.23529244     1.58000
C2026       C  0.58453448  0.48954448  0.32873720     0.92000
O2027       O  0.93212101  0.58045631  0.23449187    -0.81700
H2028       H  0.55393252  0.56047797  0.26877715    -0.07000
C2029       C  0.50834645  0.94809993  0.29425826     0.86900
O2030       O  0.52765512  0.99349708  0.19068744    -0.76200
O2031       O  0.96202866  0.53318530  0.27373257    -0.88900
O2032       O  0.56281484  0.50525925  0.33166891    -0.81700
C2033       C  0.00081665  0.56744743  0.34617244     0.92100
C2034       C  0.93801994  0.60143731  0.25088239     0.92000
Mg2035     Mg  0.56169491  0.96941127  0.26656887     1.58000
O2036       O  0.56810366  0.91983524  0.26665160    -0.81700
O2037       O  0.56289447  0.51814438  0.26472863    -0.75900
O2038       O  0.98908058  0.57599528  0.32342271    -0.81700
O2039       O  0.91203076  0.52752015  0.19438218    -0.83400
O2040       O  0.51307387  0.92608344  0.17783471    -0.81800
C2041       C  0.54706195  0.53873495  0.27232353     0.86400
O2042       O  0.53708506  0.96776018  0.22829022    -0.88900
O2043       O  0.52260260  0.96977573  0.29005035    -0.89000
O2044       O  0.50008420  0.93247246  0.27393995    -0.76100
Mg2045     Mg  0.99282839  0.56725383  0.27564159     1.58000
O2046       O  0.51161534  0.54359089  0.34830276    -0.83400
H2047       H  0.99749103  0.55587572  0.18603654    -0.07200
O2048       O  0.97530658  0.96481676  0.21887143    -0.88700
H2049       H  0.94528004  0.93892134  0.23378461    -0.07000
H2050       H  0.56740364  0.98554078  0.20477947    -0.07200
C2051       C  0.95213753  0.96063454  0.23009482     0.86400
C2052       C  0.99142589  0.55078589  0.20748175     0.87000
C2053       C  0.54506762  0.98208249  0.20781647     0.87000
H2054       H  0.50231265  0.94263754  0.31562929    -0.07200
O2055       O  0.97000626  0.50662421  0.31104669    -0.76200
Mg2056     Mg  0.50741468  0.93294651  0.22585650     1.58000
H2057       H  0.93079807  0.51642724  0.29671008    -0.07200
C2058       C  0.91403836  0.00969498  0.17443921     0.92000
O2059       O  0.98651420  0.95657328  0.15358885    -0.83400
C2060       C  0.49861001  0.93287958  0.15613691     0.92100
O2061       O  0.95811936  0.60012019  0.26874689    -0.83400
Mg2062     Mg  0.51660122  0.50605630  0.31846636     1.58200
O2063       O  0.93552235  0.99366158  0.17167138    -0.81700
O2064       O  0.58749785  0.97159600  0.30732519    -0.83400
O2065       O  0.49860722  0.77339229  0.04979413    -0.89000
C2066       C  0.93476819  0.76350264  0.48767148     0.87000
Mg2067     Mg  0.53784334  0.79554535  0.04152732     1.58100
O2068       O  0.97702612  0.70168546  0.00224466    -0.88700
O2069       O  0.98368337  0.73151198  0.06246445    -0.76100
C2070       C  0.58248945  0.74578457  0.41916894     0.92100
O2071       O  0.97852093  0.81794574  0.99908773    -0.75900
O2072       O  0.58010309  0.76877398  0.43331897    -0.83400
Mg2073     Mg  0.95751465  0.79549844  0.03680911     1.58000
C2074       C  0.50542317  0.65513513  0.43139819     0.92000
O2075       O  0.93014701  0.77873729  0.07389442    -0.81700
H2076       H  0.48940260  0.67074299  0.02730048    -0.07000
C2077       C  0.99902831  0.74893121  0.43280427     0.86900
O2078       O  0.56077658  0.75320634  0.03202680    -0.76200
O2079       O  0.94725648  0.75860496  0.01130300    -0.88900
O2080       O  0.98299655  0.66261537  0.44338704    -0.81700
C2081       C  0.90476175  0.68258509  0.48718385     0.92100
C2082       C  0.91445945  0.75718486  0.07903707     0.92000
Mg2083     Mg  0.53944865  0.70782059  0.46095003     1.58000
O2084       O  0.56620882  0.72458902  0.42363981    -0.81700
O2085       O  0.51860719  0.68500323  0.49847185    -0.75900
O2086       O  0.90947925  0.69921440  0.00890936    -0.81700
O2087       O  0.96942100  0.83381769  0.06399728    -0.83400
O2088       O  0.58830272  0.80294106  0.48922147    -0.81800
C2089       C  0.49443590  0.68484107  0.00988730     0.86400
O2090       O  0.54975628  0.74437019  0.48672855    -0.88900
O2091       O  0.00111096  0.72841116  0.44918822    -0.89000
O2092       O  0.51313117  0.77218259  0.43637381    -0.76100
Mg2093     Mg  0.94768810  0.71772977  0.03288639     1.58000
O2094       O  0.92308249  0.68015435  0.46773612    -0.83400
H2095       H  0.51499900  0.75211962  0.08264834    -0.07200
O2096       O  0.52105759  0.80133505  0.49682789    -0.88700
H2097       H  0.00652790  0.83225199  0.47040074    -0.07000
H2098       H  0.57694962  0.71858645  0.01179181    -0.07200
C2099       C  0.00199233  0.81813231  0.48793944     0.86400
C2100       C  0.49976695  0.75233819  0.06561389     0.87000
C2101       C  0.56378585  0.73743703  0.01038814     0.87000
H2102       H  0.98379649  0.74798075  0.41578453    -0.07200
O2103       O  0.93876908  0.74725909  0.46650267    -0.76200
Mg2104     Mg  0.54965575  0.78530991  0.46558452     1.58000
H2105       H  0.92125905  0.78202744  0.48538581    -0.07200
C2106       C  0.99222163  0.84808345  0.06650393     0.92000
O2107       O  0.57917201  0.81946012  0.03194300    -0.83400
C2108       C  0.59684782  0.81617566  0.01190555     0.92100
O2109       O  0.91692654  0.73408328  0.06505710    -0.83400
Mg2110     Mg  0.96292863  0.70523286  0.45792597     1.58200
O2111       O  0.51899084  0.83801025  0.05712970    -0.81700
O2112       O  0.52794996  0.66974001  0.43391154    -0.83400
O2113       O  0.77409864  0.70093024  0.24700105    -0.89000
C2114       C  0.75523194  0.74765211  0.31688983     0.87000
Mg2115     Mg  0.80034572  0.71721105  0.21376202     1.58100
O2116       O  0.69969908  0.74147085  0.26749701    -0.88700
O2117       O  0.73178568  0.68331940  0.25295253    -0.76100
C2118       C  0.74846245  0.84563122  0.18266279     0.92100
O2119       O  0.81238918  0.74751243  0.27851351    -0.75900
O2120       O  0.77218526  0.83275107  0.18337943    -0.83400
Mg2121     Mg  0.79049107  0.70478926  0.28919183     1.58000
C2122       C  0.65371514  0.81591129  0.24642478     0.92000
O2123       O  0.77246036  0.66146333  0.30444868    -0.81700
H2124       H  0.67300792  0.71720102  0.24524819    -0.07000
C2125       C  0.74540780  0.81607013  0.26145214     0.86900
O2126       O  0.76164939  0.72956598  0.18716499    -0.76200
O2127       O  0.75234549  0.72687907  0.30100659    -0.88900
O2128       O  0.66104703  0.80092751  0.26767411    -0.81700
C2129       C  0.67364938  0.74410156  0.33767760     0.92100
C2130       C  0.75067180  0.65216200  0.31736072     0.92000
Mg2131     Mg  0.71004293  0.79392156  0.21262616     1.58000
O2132       O  0.72714048  0.83660677  0.19630986    -0.81700
O2133       O  0.68816249  0.75153787  0.22380714    -0.75900
O2134       O  0.68876058  0.72215010  0.33189623    -0.81700
O2135       O  0.83122725  0.68151663  0.27693826    -0.83400
O2136       O  0.81147007  0.77825323  0.17061567    -0.81800
C2137       C  0.68618542  0.73606938  0.24579925     0.86400
O2138       O  0.74846500  0.77210106  0.20128315    -0.88900
O2139       O  0.72708329  0.79863816  0.25460077    -0.89000
O2140       O  0.76895072  0.81709309  0.24881972    -0.76100
Mg2141     Mg  0.71303263  0.70511253  0.29233593     1.58000
O2142       O  0.67429838  0.76664654  0.32272857    -0.83400
H2143       H  0.75846648  0.67029729  0.22199449    -0.07200
O2144       O  0.80131834  0.75848785  0.23480563    -0.88700
H2145       H  0.82745034  0.78250558  0.25800815    -0.07000
H2146       H  0.72954675  0.75193422  0.16920434    -0.07200
C2147       C  0.81443376  0.76355083  0.25686737     0.86400
C2148       C  0.75522122  0.68413504  0.24001456     0.87000
C2149       C  0.74601460  0.75155902  0.18503675     0.87000
H2150       H  0.74163747  0.83015558  0.27916342    -0.07200
O2151       O  0.74004087  0.76992852  0.31442640    -0.76200
Mg2152     Mg  0.78748220  0.79480944  0.20982422     1.58000
H2153       H  0.77177120  0.74723854  0.33265688    -0.07200
C2154       C  0.84787950  0.68456235  0.25603534     0.92000
O2155       O  0.82729237  0.73388800  0.17837903    -0.83400
C2156       C  0.82687884  0.75688442  0.16397580     0.92100
O2157       O  0.72769664  0.66640016  0.31793366    -0.83400
Mg2158     Mg  0.70138105  0.78280500  0.28799851     1.58200
O2159       O  0.84109972  0.69993061  0.23475397    -0.81700
O2160       O  0.66940307  0.81751949  0.22463015    -0.83400
O2161       O  0.73504787  0.99064900  0.44815140    -0.89000
C2162       C  0.74259742  0.56539764  0.99483485     0.87000
Mg2163     Mg  0.70877674  0.95550985  0.46144233     1.58100
O2164       O  0.80147817  0.51894587  0.49855767    -0.88700
O2165       O  0.77876639  0.49911594  0.43776265    -0.76100
C2166       C  0.74247130  0.93361051  0.09689073     0.92100
O2167       O  0.68799930  0.52170531  0.48712632    -0.75900
O2168       O  0.72139020  0.93309662  0.08022806    -0.83400
Mg2169     Mg  0.71567056  0.53283438  0.44878588     1.58000
C2170       C  0.83565313  0.00380595  0.08055632     0.92000
O2171       O  0.73792895  0.54916010  0.40854248    -0.81700
H2172       H  0.83366351  0.99905911  0.48098241    -0.07000
C2173       C  0.74552813  0.51354130  0.06436796     0.86900
O2174       O  0.74716210  0.93235778  0.48071428    -0.76200
O2175       O  0.74904245  0.54762309  0.47577950    -0.88900
O2176       O  0.83160457  0.52433823  0.06336582    -0.81700
C2177       C  0.82132319  0.59343939  0.99947474     0.92100
C2178       C  0.75972071  0.56390699  0.40253079     0.92000
Mg2179     Mg  0.78653305  0.96526172  0.05089819     1.58000
O2180       O  0.76465622  0.94749148  0.09057929    -0.81700
O2181       O  0.81441803  0.97679789  0.01296193    -0.75900
O2182       O  0.80845958  0.58331196  0.47722899    -0.81700
O2183       O  0.68134096  0.51695401  0.42019017    -0.83400
O2184       O  0.69494275  0.91307573  0.02234426    -0.81800
C2185       C  0.81741798  0.99885346  0.49698538     0.86400
O2186       O  0.75330749  0.95043706  0.02379349    -0.88900
O2187       O  0.76731813  0.50724118  0.05149622    -0.89000
O2188       O  0.72249713  0.99866447  0.06124488    -0.76100
Mg2189     Mg  0.79114567  0.54112443  0.45992509     1.58000
O2190       O  0.82091896  0.58015763  0.02308060    -0.83400
H2191       H  0.75737844  0.96559903  0.42224717    -0.07200
O2192       O  0.70042656  0.97808590  0.00092930    -0.88700
H2193       H  0.66896028  0.50094996  0.01936057    -0.07000
H2194       H  0.77756227  0.91863131  0.50781273    -0.07200
C2195       C  0.68496420  0.50058676  0.00310230     0.86400
C2196       C  0.75694290  0.98452607  0.43538832     0.87000
C2197       C  0.76005588  0.93303637  0.50426705     0.87000
H2198       H  0.74532943  0.53243682  0.07755692    -0.07200
O2199       O  0.75530682  0.56581638  0.01848369    -0.76200
Mg2200     Mg  0.71094529  0.95623521  0.03948989     1.58000
H2201       H  0.72523393  0.57999775  0.99124230    -0.07200
C2202       C  0.66579445  0.49480226  0.42007781     0.92000
O2203       O  0.68138343  0.91809788  0.47608205    -0.83400
C2204       C  0.68118015  0.90439034  0.49940662     0.92100
O2205       O  0.78050492  0.56521014  0.41949110    -0.83400
Mg2206     Mg  0.79347772  0.54251316  0.03795283     1.58200
O2207       O  0.67007128  0.97366812  0.43697783    -0.81700
O2208       O  0.82078104  0.98117802  0.07967752    -0.83400
C2209       C  0.74474674  0.87070596  0.16381230    -0.06800
C2210       C  0.76557957  0.89194666  0.16279822    -0.17900
C2211       C  0.76412993  0.91447184  0.14313416     0.10400
C2212       C  0.74202952  0.91512268  0.12275474    -0.06700
C2213       C  0.72062622  0.89435488  0.12477192    -0.17900
C2214       C  0.72160785  0.87253673  0.14498242     0.10400
S2215       S  0.79120448  0.94142755  0.14547490    -0.32900
S2216       S  0.69434024  0.84570987  0.14338417    -0.32900
H2217       H  0.68328149  0.85326299  0.16994423     0.28500
H2218       H  0.77252514  0.96439238  0.14061900     0.28400
H2219       H  0.78314274  0.89098801  0.17747341     0.19000
H2220       H  0.70347615  0.89412194  0.10959840     0.19000
C2221       C  0.75330682  0.62528552  0.33427725    -0.06800
C2222       C  0.77997642  0.61815407  0.34537878    -0.17900
C2223       C  0.78332578  0.59682728  0.36613864     0.10400
C2224       C  0.75928273  0.58209290  0.37641013    -0.06700
C2225       C  0.73305407  0.58745822  0.36329357    -0.17900
C2226       C  0.72987196  0.60849278  0.34235267     0.10400
S2227       S  0.81843962  0.58940764  0.37937675    -0.32900
S2228       S  0.69525221  0.61283916  0.32705942    -0.32900
H2229       H  0.70520976  0.61959565  0.29985054     0.28500
H2230       H  0.83315343  0.60862047  0.36187338     0.28400
H2231       H  0.79817520  0.63042895  0.33887436     0.19000
H2232       H  0.71444266  0.57596052  0.37010074     0.19000
C2233       C  0.87961993  0.66320283  0.48770052    -0.06800
C2234       C  0.86517983  0.66026349  0.01405474    -0.17900
C2235       C  0.84458823  0.63908127  0.01777456     0.10400
C2236       C  0.83910166  0.61943539  0.99580902    -0.06700
C2237       C  0.85189762  0.62359446  0.46882048    -0.17900
C2238       C  0.87190261  0.64538761  0.46467893     0.10400
S2239       S  0.82595542  0.63847565  0.05094662    -0.32900
S2240       S  0.88727120  0.64962715  0.42991593    -0.32900
H2241       H  0.87048838  0.62934029  0.41576582     0.28500
H2242       H  0.80016235  0.62942037  0.03922855     0.28400
H2243       H  0.86985468  0.67422645  0.03173261     0.19000
H2244       H  0.84723848  0.60910535  0.45157648     0.19000
C2245       C  0.66287120  0.87870143  0.50275433    -0.06800
C2246       C  0.65519413  0.86913393  0.03091034    -0.17900
C2247       C  0.63489405  0.84761698  0.03472834     0.10400
C2248       C  0.62336002  0.83352322  0.01090824    -0.06700
C2249       C  0.63369889  0.84045669  0.48361571    -0.17900
C2250       C  0.65531555  0.86061855  0.48004866     0.10400
S2251       S  0.62476119  0.83927916  0.07049781    -0.32900
S2252       S  0.67228657  0.86213611  0.44599326    -0.32900
H2253       H  0.69905674  0.86920123  0.45681110     0.28500
H2254       H  0.62101950  0.80982468  0.06536638     0.28400
H2255       H  0.66239356  0.88086890  0.04930781     0.19000
H2256       H  0.62742757  0.82784992  0.46544778     0.19000
C2257       C  0.65317985  0.74334995  0.36127009    -0.06800
C2258       C  0.63754453  0.71828559  0.36600007    -0.17900
C2259       C  0.61410998  0.71807306  0.38426707     0.10400
C2260       C  0.60589886  0.74383360  0.39809028    -0.06700
C2261       C  0.62222908  0.76860088  0.39361953    -0.17900
C2262       C  0.64581249  0.76850027  0.37610150     0.10400
S2263       S  0.59548401  0.68465185  0.38940318    -0.32900
S2264       S  0.66609340  0.80116708  0.37436621    -0.32900
H2265       H  0.69228602  0.78738984  0.37093896     0.28500
H2266       H  0.60964951  0.66863773  0.36862333     0.28400
H2267       H  0.64319542  0.69902554  0.35458119     0.19000
H2268       H  0.61704930  0.78841735  0.40434983     0.19000
C2269       C  0.84619874  0.75911657  0.13970315    -0.06800
C2270       C  0.86536947  0.78195571  0.13883537    -0.17900
C2271       C  0.88810101  0.78201213  0.11988582     0.10400
C2272       C  0.89158381  0.75885507  0.10070514    -0.06700
C2273       C  0.87124417  0.73680323  0.10090464    -0.17900
C2274       C  0.84871643  0.73681709  0.11986870     0.10400
S2275       S  0.91225144  0.81164354  0.12249555    -0.32900
S2276       S  0.82352534  0.70797175  0.11740682    -0.32900
H2277       H  0.80034483  0.72393146  0.12726655     0.28500
H2278       H  0.93623904  0.79395998  0.12455889     0.28400
H2279       H  0.86360003  0.79910358  0.15418917     0.19000
H2280       H  0.87258028  0.71929700  0.08593304     0.19000
C2281       C  0.87483109  0.66791504  0.25505267    -0.06800
C2282       C  0.88473281  0.65842203  0.22857299    -0.17900
C2283       C  0.90676027  0.63839648  0.22634195     0.10400
C2284       C  0.91922588  0.62703158  0.25108294    -0.06700
C2285       C  0.91095096  0.63823058  0.27740602    -0.17900
C2286       C  0.88927253  0.65861603  0.27964495     0.10400
S2287       S  0.91788661  0.62811168  0.19135672    -0.32900
S2288       S  0.88111312  0.67176488  0.31451125    -0.32900
H2289       H  0.87449254  0.69971504  0.30544329     0.28500
H2290       H  0.94609032  0.62249575  0.19888178     0.28400
H2291       H  0.87450372  0.66573939  0.20936665     0.19000
H2292       H  0.92067555  0.63019125  0.29660439     0.19000
C2293       C  0.58282619  0.87474575  0.24803696    -0.06800
C2294       C  0.59347734  0.86348955  0.27338173    -0.17900
C2295       C  0.61480954  0.84259986  0.27357765     0.10400
C2296       C  0.62719890  0.83342470  0.24770295    -0.06700
C2297       C  0.61583616  0.84418924  0.22232724    -0.17900
C2298       C  0.59369026  0.86415293  0.22218418     0.10400
S2299       S  0.62613952  0.83017966  0.30784327    -0.32900
S2300       S  0.58224160  0.87744101  0.18827717    -0.32900
H2301       H  0.55460462  0.86706371  0.19168848     0.28500
H2302       H  0.62033293  0.80129687  0.30158627     0.28400
H2303       H  0.58529627  0.87130838  0.29332750     0.19000
H2304       H  0.62472771  0.83754537  0.20228249     0.19000
C2305       C  0.60652866  0.49116106  0.35074773    -0.06800
C2306       C  0.61604166  0.96487702  0.36283792    -0.17900
C2307       C  0.63470362  0.96518204  0.38586100     0.10400
C2308       C  0.64385059  0.49258652  0.39761640    -0.06700
C2309       C  0.63448251  0.51804960  0.38459587    -0.17900
C2310       C  0.61633625  0.51761842  0.36126316     0.10400
S2311       S  0.64582977  0.93086084  0.39940574    -0.32900
S2312       S  0.60727097  0.55155160  0.34525698    -0.32900
H2313       H  0.60508242  0.54100209  0.31748484     0.28500
H2314       H  0.67474566  0.93736921  0.39762934     0.28400
H2315       H  0.60819300  0.94452437  0.35511990     0.19000
H2316       H  0.64183521  0.53860850  0.39224360     0.19000
C2317       C  0.89218034  0.00806124  0.15228329    -0.06800
C2318       C  0.88482624  0.53294500  0.13796410    -0.17900
C2319       C  0.86817758  0.53227859  0.11345121     0.10400
C2320       C  0.85748991  0.00601840  0.10330547    -0.06700
C2321       C  0.86480857  0.98085472  0.11817189    -0.17900
C2322       C  0.88180722  0.98159121  0.14236543     0.10400
S2323       S  0.86084327  0.56628918  0.09696611    -0.32900
S2324       S  0.88878201  0.94804214  0.16010356    -0.32900
H2325       H  0.89146538  0.95974766  0.18736669     0.28500
H2326       H  0.87239309  0.55789348  0.07085490     0.28400
H2327       H  0.89289186  0.55332740  0.14538181     0.19000
H2328       H  0.85673830  0.96029420  0.11130640     0.19000
C2329       C  0.99307709  0.87286014  0.08640453    -0.06800
C2330       C  0.97310117  0.87329380  0.10832897    -0.17900
C2331       C  0.97495186  0.89273893  0.13065840     0.10400
C2332       C  0.49767404  0.91298981  0.13201504    -0.06700
C2333       C  0.52227992  0.90714994  0.11679749    -0.17900
C2334       C  0.52214611  0.88780681  0.09410077     0.10400
S2335       S  0.94909450  0.88944987  0.15850548    -0.32900
S2336       S  0.55488506  0.88382633  0.07520419    -0.32900
H2337       H  0.54203436  0.88558272  0.04840230     0.28500
H2338       H  0.94894149  0.91823111  0.16705974     0.28400
H2339       H  0.95638859  0.85752761  0.10883568     0.19000
H2340       H  0.54168362  0.91799170  0.12245043     0.19000
C2341       C  0.00343871  0.58785921  0.36973340    -0.06800
C2342       C  0.98567761  0.58584726  0.39331077    -0.17900
C2343       C  0.98699930  0.60620788  0.41518306     0.10400
C2344       C  0.50549716  0.63023638  0.41198438    -0.06700
C2345       C  0.52063086  0.63323048  0.38668838    -0.17900
C2346       C  0.51889602  0.61279678  0.36528689     0.10400
S2347       S  0.96331503  0.60156231  0.44458380    -0.32900
S2348       S  0.53904176  0.61931711  0.33355413    -0.32900
H2349       H  0.54540062  0.59044656  0.32792307     0.28500
H2350       H  0.98235377  0.61194957  0.46498280     0.28400
H2351       H  0.97046021  0.56859785  0.39449281     0.19000
H2352       H  0.53328381  0.65220427  0.38307745     0.19000
O2353       O  0.97732350  0.52954107  0.71166797    -0.89000
C2354       C  0.95334750  0.51870232  0.79359219     0.87000
Mg2355     Mg  0.98256193  0.99340258  0.68376584     1.58100
O2356       O  0.52401515  0.53468150  0.78291450    -0.88700
O2357       O  0.00028392  0.56658050  0.72780291    -0.76100
C2358       C  0.56292125  0.89904527  0.75130337     0.92100
O2359       O  0.93651228  0.98123574  0.73768769    -0.75900
O2360       O  0.54244556  0.90023289  0.73398941    -0.83400
Mg2361     Mg  0.93797995  0.53058261  0.73459182     1.58000
C2362       C  0.58492775  0.48998115  0.82861819     0.92000
O2363       O  0.93226434  0.58031453  0.73372495    -0.81700
H2364       H  0.55417812  0.56058017  0.76828718    -0.07000
C2365       C  0.50805229  0.94891210  0.79535295     0.86900
O2366       O  0.52969069  0.99265768  0.69148119    -0.76200
O2367       O  0.96196940  0.53279128  0.77323741    -0.88900
O2368       O  0.56319402  0.50567202  0.83157866    -0.81700
C2369       C  0.00006520  0.56769268  0.84589434     0.92100
C2370       C  0.93781254  0.60120854  0.75032242     0.92000
Mg2371     Mg  0.56189128  0.96901642  0.76771904     1.58000
O2372       O  0.56802975  0.91941693  0.76862591    -0.81700
O2373       O  0.56309265  0.51822158  0.76442420    -0.75900
O2374       O  0.98663241  0.57505845  0.82368306    -0.81700
O2375       O  0.91251571  0.52755720  0.69348063    -0.83400
O2376       O  0.51238690  0.92350468  0.67979541    -0.81800
C2377       C  0.54732261  0.53886342  0.77201682     0.86400
O2378       O  0.53780238  0.96675411  0.72923488    -0.88900
O2379       O  0.52263786  0.97027934  0.79086467    -0.89000
O2380       O  0.49972950  0.93306188  0.77525965    -0.76100
Mg2381     Mg  0.99226702  0.56712078  0.77577344     1.58000
O2382       O  0.51183912  0.54388506  0.84820224    -0.83400
H2383       H  0.99849069  0.55606712  0.68618916    -0.07200
O2384       O  0.97540885  0.96463652  0.71886632    -0.88700
H2385       H  0.94514321  0.93884572  0.73345147    -0.07000
H2386       H  0.56895328  0.98372920  0.70627346    -0.07200
C2387       C  0.95212412  0.96053761  0.72986088     0.86400
C2388       C  0.99202254  0.55092487  0.70750128     0.87000
C2389       C  0.54648962  0.98076458  0.70885796     0.87000
H2390       H  0.50174265  0.94395622  0.81676450    -0.07200
O2391       O  0.97020677  0.50689786  0.81098747    -0.76200
Mg2392     Mg  0.50746607  0.93233541  0.72731236     1.58000
H2393       H  0.93090047  0.51568648  0.79621334    -0.07200
C2394       C  0.91457116  0.00961748  0.67388103     0.92000
O2395       O  0.98754866  0.95624711  0.65351504    -0.83400
C2396       C  0.50008177  0.93122529  0.65709961     0.92100
O2397       O  0.95753161  0.59977253  0.76857393    -0.83400
Mg2398     Mg  0.51696142  0.50635359  0.81842362     1.58200
O2399       O  0.93630283  0.99393467  0.67097294    -0.81700
O2400       O  0.58725486  0.97166756  0.80855811    -0.83400
O2401       O  0.49662742  0.77385937  0.54870033    -0.89000
C2402       C  0.93551931  0.76295891  0.98835045     0.87000
Mg2403     Mg  0.53498272  0.79731434  0.53994882     1.58100
O2404       O  0.97608724  0.70210225  0.50131382    -0.88700
O2405       O  0.98298429  0.73169977  0.56146677    -0.76100
C2406       C  0.58408162  0.74423553  0.92035268     0.92100
O2407       O  0.97765763  0.81860437  0.49902984    -0.75900
O2408       O  0.58213592  0.76703199  0.93481471    -0.83400
Mg2409     Mg  0.95672630  0.79566379  0.53655785     1.58000
C2410       C  0.50559478  0.65487341  0.93188444     0.92000
O2411       O  0.92945838  0.77851276  0.57354612    -0.81700
H2412       H  0.48931793  0.67119765  0.52656775    -0.07000
C2413       C  0.99997310  0.74810131  0.93329592     0.86900
O2414       O  0.55906291  0.75555238  0.53060641    -0.76200
O2415       O  0.94648793  0.75901792  0.51061325    -0.88900
O2416       O  0.98372121  0.66211420  0.94425090    -0.81700
C2417       C  0.90566111  0.68217738  0.98820605     0.92100
C2418       C  0.91366952  0.75697673  0.57840687     0.92000
Mg2419     Mg  0.54040924  0.70669008  0.96190119     1.58000
O2420       O  0.56753707  0.72321291  0.92466568    -0.81700
O2421       O  0.51896226  0.68410315  0.99926994    -0.75900
O2422       O  0.90857025  0.69965698  0.50786653    -0.81700
O2423       O  0.96863641  0.83340959  0.56433756    -0.83400
O2424       O  0.59131079  0.80013058  0.99086309    -0.81800
C2425       C  0.49408917  0.68532716  0.50910355     0.86400
O2426       O  0.55138969  0.74273534  0.98799293    -0.88900
O2427       O  0.00197549  0.72772479  0.94985520    -0.89000
O2428       O  0.51537228  0.77181644  0.93796196    -0.76100
Mg2429     Mg  0.94683541  0.71801201  0.53194412     1.58000
O2430       O  0.92400241  0.67971244  0.96879190    -0.83400
H2431       H  0.51387069  0.75305265  0.58141611    -0.07200
O2432       O  0.52421928  0.80032425  0.99837654    -0.88700
H2433       H  0.00751211  0.83126368  0.97044292    -0.07000
H2434       H  0.57606903  0.72117995  0.51063282    -0.07200
C2435       C  0.00289694  0.81733714  0.98811295     0.86400
C2436       C  0.49847246  0.75286409  0.56453407     0.87000
C2437       C  0.56238558  0.73963588  0.50911380     0.87000
H2438       H  0.98479677  0.74703702  0.91623350    -0.07200
O2439       O  0.93961367  0.74668439  0.96723310    -0.76200
Mg2440     Mg  0.55226419  0.78380186  0.96718295     1.58000
H2441       H  0.92194253  0.78142349  0.98599859    -0.07200
C2442       C  0.99115534  0.84814610  0.56652266     0.92000
O2443       O  0.57517036  0.82238094  0.52987702    -0.83400
C2444       C  0.59315434  0.81941760  0.51012534     0.92100
O2445       O  0.91607312  0.73405043  0.56416787    -0.83400
Mg2446     Mg  0.96379777  0.70469404  0.95881734     1.58200
O2447       O  0.51531269  0.83971964  0.55548258    -0.81700
O2448       O  0.52832981  0.66908268  0.93461212    -0.83400
O2449       O  0.77384348  0.70027661  0.74634805    -0.89000
C2450       C  0.75549583  0.74713798  0.81628156     0.87000
Mg2451     Mg  0.79971039  0.71657632  0.71287971     1.58100
O2452       O  0.69954507  0.74085334  0.76737650    -0.88700
O2453       O  0.73154678  0.68273322  0.75255447    -0.76100
C2454       C  0.74739399  0.84484507  0.68182129     0.92100
O2455       O  0.81224921  0.74711404  0.77742823    -0.75900
O2456       O  0.77108074  0.83191353  0.68249874    -0.83400
Mg2457     Mg  0.79053993  0.70438242  0.78840844     1.58000
C2458       C  0.65336137  0.81532732  0.74710046     0.92000
O2459       O  0.77275229  0.66108945  0.80400234    -0.81700
H2460       H  0.67244667  0.71663011  0.74557611    -0.07000
C2461       C  0.74502047  0.81550840  0.76082861     0.86900
O2462       O  0.76068356  0.72879088  0.68663985    -0.76200
O2463       O  0.75246817  0.72638609  0.80040380    -0.88900
O2464       O  0.66082607  0.80008891  0.76811187    -0.81700
C2465       C  0.67419206  0.74329438  0.83779885     0.92100
C2466       C  0.75101695  0.65186362  0.81705440     0.92000
Mg2467     Mg  0.70913999  0.79328808  0.71241793     1.58000
O2468       O  0.72608629  0.83591746  0.69557215    -0.81700
O2469       O  0.68730367  0.75095648  0.72390461    -0.75900
O2470       O  0.68927485  0.72140781  0.83180027    -0.81700
O2471       O  0.83123094  0.68126538  0.77597141    -0.83400
O2472       O  0.81020112  0.77752509  0.66950163    -0.81800
C2473       C  0.68566655  0.73547301  0.74591133     0.86400
O2474       O  0.74744648  0.77135662  0.70068091    -0.88900
O2475       O  0.72666251  0.79803187  0.75420504    -0.89000
O2476       O  0.76843456  0.81650904  0.74796757    -0.76100
Mg2477     Mg  0.71313684  0.70454368  0.79205652     1.58000
O2478       O  0.67466356  0.76589417  0.82292381    -0.83400
H2479       H  0.75803525  0.66963260  0.72146991    -0.07200
O2480       O  0.80066273  0.75788089  0.73381866    -0.88700
H2481       H  0.82700519  0.78205572  0.75661604    -0.07000
H2482       H  0.72825860  0.75089942  0.66893917    -0.07200
C2483       C  0.81401918  0.76306687  0.75570140     0.86400
C2484       C  0.75491269  0.68348906  0.73949755     0.87000
C2485       C  0.74490384  0.75069512  0.68458763     0.87000
H2486       H  0.74140030  0.82964878  0.77852839    -0.07200
O2487       O  0.74029594  0.76941486  0.81396258    -0.76200
Mg2488     Mg  0.78655859  0.79408834  0.70887057     1.58000
H2489       H  0.77218435  0.74671519  0.83188932    -0.07200
C2490       C  0.84772215  0.68429200  0.75494316     0.92000
O2491       O  0.82632094  0.73327895  0.67729796    -0.83400
C2492       C  0.82572112  0.75624581  0.66286594     0.92100
O2493       O  0.72802068  0.66603413  0.81757694    -0.83400
Mg2494     Mg  0.70137130  0.78214029  0.78792047     1.58200
O2495       O  0.84071786  0.69948389  0.73360639    -0.81700
O2496       O  0.66876273  0.81703119  0.72509778    -0.83400
O2497       O  0.73488420  0.99029255  0.94888392    -0.89000
C2498       C  0.74264598  0.56490305  0.49446549     0.87000
Mg2499     Mg  0.70874909  0.95499895  0.96236503     1.58100
O2500       O  0.80148088  0.51953508  0.99902452    -0.88700
O2501       O  0.77890647  0.49967598  0.93823692    -0.76100
C2502       C  0.74233637  0.93278927  0.59586218     0.92100
O2503       O  0.68792825  0.52229278  0.98719166    -0.75900
O2504       O  0.72134251  0.93245943  0.57907853    -0.83400
Mg2505     Mg  0.71582392  0.53330721  0.94898109     1.58000
C2506       C  0.83555590  0.00376058  0.58042620     0.92000
O2507       O  0.73832085  0.54944579  0.90880907    -0.81700
H2508       H  0.83332285  0.99857044  0.98106455    -0.07000
C2509       C  0.74557466  0.51283476  0.56402775     0.86900
O2510       O  0.74717390  0.93212810  0.98172061    -0.76200
O2511       O  0.74905721  0.54814405  0.97614603    -0.88900
O2512       O  0.83172279  0.52373577  0.56278887    -0.81700
C2513       C  0.82130852  0.59294895  0.49888293     0.92100
C2514       C  0.76004486  0.56435342  0.90294462     0.92000
Mg2515     Mg  0.78669541  0.96501018  0.55037168     1.58000
O2516       O  0.76458114  0.94671695  0.58979923    -0.81700
O2517       O  0.81475354  0.97697846  0.51267423    -0.75900
O2518       O  0.80843395  0.58390506  0.97780106    -0.81700
O2519       O  0.68164752  0.51739566  0.92021597    -0.83400
O2520       O  0.69453336  0.91341699  0.52104322    -0.81800
C2521       C  0.81718454  0.99858567  0.99717902     0.86400
O2522       O  0.75351424  0.95028407  0.52294119    -0.88900
O2523       O  0.76735870  0.50663580  0.55109508    -0.89000
O2524       O  0.72268309  0.99822018  0.56091112    -0.76100
Mg2525     Mg  0.79120743  0.54171563  0.96043163     1.58000
O2526       O  0.82096615  0.57966753  0.52250196    -0.83400
H2527       H  0.75705243  0.96526964  0.92281446    -0.07200
O2528       O  0.70073168  0.97844384  0.50016997    -0.88700
H2529       H  0.66918961  0.50026463  0.51932456    -0.07000
H2530       H  0.77744199  0.91866130  0.00907790    -0.07200
C2531       C  0.68510229  0.49994504  0.50297511     0.86400
C2532       C  0.75667900  0.98421146  0.93593688     0.87000
C2533       C  0.75993332  0.93300819  0.00532475     0.87000
H2534       H  0.74533738  0.53170014  0.57725655    -0.07200
O2535       O  0.75536925  0.56529281  0.51810438    -0.76200
Mg2536     Mg  0.71106980  0.95615030  0.53857061     1.58000
H2537       H  0.72531069  0.57954079  0.49088547    -0.07200
C2538       C  0.66606960  0.49526799  0.92006581     0.92000
O2539       O  0.68186384  0.91712582  0.97733314    -0.83400
C2540       C  0.68213656  0.90336516  0.00066397     0.92100
O2541       O  0.78069021  0.56582222  0.92004443    -0.83400
Mg2542     Mg  0.79353832  0.54194906  0.53748069     1.58200
O2543       O  0.67002260  0.97295007  0.93772718    -0.81700
O2544       O  0.82076837  0.98105290  0.57950417    -0.83400
C2545       C  0.74379319  0.86988608  0.66290909    -0.06800
C2546       C  0.76457185  0.89119036  0.66216407    -0.17900
C2547       C  0.76340633  0.91362497  0.64238485     0.10400
C2548       C  0.74165690  0.91414523  0.62163075    -0.06700
C2549       C  0.72031721  0.89326146  0.62331724    -0.17900
C2550       C  0.72100578  0.87152918  0.64365090     0.10400
S2551       S  0.79038192  0.94064319  0.64507741    -0.32900
S2552       S  0.69389289  0.84456582  0.64172618    -0.32900
H2553       H  0.68268097  0.85177767  0.66831124     0.28500
H2554       H  0.77170511  0.96355624  0.63998170     0.28400
H2555       H  0.78189025  0.89033750  0.67713565     0.19000
H2556       H  0.70344407  0.89290778  0.60783790     0.19000
C2557       C  0.75371220  0.62520342  0.83423275    -0.06800
C2558       C  0.78033459  0.61845295  0.84564869    -0.17900
C2559       C  0.78367658  0.59742619  0.86669443     0.10400
C2560       C  0.75968249  0.58247267  0.87679352    -0.06700
C2561       C  0.73351443  0.58752428  0.86344552    -0.17900
C2562       C  0.73031221  0.60838912  0.84236183     0.10400
S2563       S  0.81869368  0.59079394  0.88058938    -0.32900
S2564       S  0.69566659  0.61259014  0.82707569    -0.32900
H2565       H  0.70557516  0.61916559  0.79980838     0.28500
H2566       H  0.83339392  0.60995619  0.86302007     0.28400
H2567       H  0.79846901  0.63086067  0.83920078     0.19000
H2568       H  0.71493488  0.57594349  0.87020882     0.19000
C2569       C  0.88040961  0.66295631  0.98857568    -0.06800
C2570       C  0.86486084  0.66006082  0.51340257    -0.17900
C2571       C  0.84456457  0.63860970  0.51726304     0.10400
C2572       C  0.83887001  0.61913719  0.49518887    -0.06700
C2573       C  0.85264368  0.62341843  0.96964767    -0.17900
C2574       C  0.87292420  0.64494537  0.96561809     0.10400
S2575       S  0.82659195  0.63744946  0.55078251    -0.32900
S2576       S  0.88894182  0.64853039  0.93107866    -0.32900
H2577       H  0.87183487  0.62863249  0.91678278     0.28500
H2578       H  0.80058196  0.62860564  0.53939442     0.28400
H2579       H  0.86972350  0.67385890  0.53115679     0.19000
H2580       H  0.84817433  0.60873894  0.95251036     0.19000
C2581       C  0.66526233  0.87654081  0.00383812    -0.06800
C2582       C  0.65020079  0.87401285  0.52924026    -0.17900
C2583       C  0.62895483  0.85352269  0.53299582     0.10400
C2584       C  0.61941126  0.83722614  0.50959824    -0.06700
C2585       C  0.63560252  0.83889955  0.98425777    -0.17900
C2586       C  0.65661298  0.85966882  0.98058561     0.10400
S2587       S  0.61479105  0.84990595  0.56814637    -0.32900
S2588       S  0.67140108  0.86344412  0.94568574    -0.32900
H2589       H  0.69880040  0.86974112  0.95534143     0.28500
H2590       H  0.61357066  0.81980002  0.56705298     0.28400
H2591       H  0.65607745  0.88724203  0.54711847     0.19000
H2592       H  0.62806247  0.82761656  0.96572436     0.19000
C2593       C  0.65397844  0.74236653  0.86158372    -0.06800
C2594       C  0.63858015  0.71716877  0.86647757    -0.17900
C2595       C  0.61540007  0.71675957  0.88505998     0.10400
C2596       C  0.60721632  0.74243536  0.89900346    -0.06700
C2597       C  0.62329450  0.76733985  0.89433726    -0.17900
C2598       C  0.64664525  0.76743787  0.87653948     0.10400
S2599       S  0.59709603  0.68321417  0.89051909    -0.32900
S2600       S  0.66669901  0.80024090  0.87464103    -0.32900
H2601       H  0.69294383  0.78663225  0.87097509     0.28500
H2602       H  0.61084016  0.66740931  0.86930470     0.28400
H2603       H  0.64422320  0.69795369  0.85498148     0.19000
H2604       H  0.61810333  0.78712149  0.90512600     0.19000
C2605       C  0.84507147  0.75862743  0.63865689    -0.06800
C2606       C  0.86434095  0.78138758  0.63811113    -0.17900
C2607       C  0.88721803  0.78148869  0.61935105     0.10400
C2608       C  0.89072178  0.75848966  0.59999806    -0.06700
C2609       C  0.87030167  0.73650571  0.59989014    -0.17900
C2610       C  0.84764684  0.73645563  0.61870129     0.10400
S2611       S  0.91153963  0.81092933  0.62245410    -0.32900
S2612       S  0.82239526  0.70769320  0.61592510    -0.32900
H2613       H  0.79923032  0.72359336  0.62591296     0.28500
H2614       H  0.93539978  0.79305981  0.62446607     0.28400
H2615       H  0.86254649  0.79840476  0.65360408     0.19000
H2616       H  0.87167699  0.71910827  0.58479889     0.19000
C2617       C  0.87474908  0.66780517  0.75395194    -0.06800
C2618       C  0.88450301  0.65798834  0.72753941    -0.17900
C2619       C  0.90653358  0.63795053  0.72544829     0.10400
C2620       C  0.91906894  0.62684438  0.75027586    -0.06700
C2621       C  0.91097949  0.63843686  0.77649081    -0.17900
C2622       C  0.88937319  0.65890124  0.77857125     0.10400
S2623       S  0.91760894  0.62736287  0.69053721    -0.32900
S2624       S  0.88156031  0.67270081  0.81327374    -0.32900
H2625       H  0.87469670  0.70043881  0.80375850     0.28500
H2626       H  0.94588653  0.62211848  0.69805212     0.28400
H2627       H  0.87416179  0.66506134  0.70830418     0.19000
H2628       H  0.92080342  0.63067287  0.79574820     0.19000
C2629       C  0.58263167  0.87423665  0.75008808    -0.06800
C2630       C  0.59399893  0.86329733  0.77525187    -0.17900
C2631       C  0.61537689  0.84245781  0.77506048     0.10400
C2632       C  0.62700439  0.83297651  0.74893469    -0.06700
C2633       C  0.61502144  0.84351780  0.72378300    -0.17900
C2634       C  0.59289946  0.86347666  0.72404919     0.10400
S2635       S  0.62784567  0.83056737  0.80911054    -0.32900
S2636       S  0.58073849  0.87656937  0.69031865    -0.32900
H2637       H  0.55331949  0.86576937  0.69419815     0.28500
H2638       H  0.62144148  0.80165229  0.80363622     0.28400
H2639       H  0.58636457  0.87132855  0.79533314     0.19000
H2640       H  0.62339988  0.83668875  0.70357634     0.19000
C2641       C  0.60694436  0.49161344  0.85059617    -0.06800
C2642       C  0.61561780  0.96492355  0.86375709    -0.17900
C2643       C  0.63429687  0.96496863  0.88674691     0.10400
C2644       C  0.64421770  0.49305992  0.89750373    -0.06700
C2645       C  0.63498923  0.51851424  0.88435350    -0.17900
C2646       C  0.61685912  0.51806937  0.86100385     0.10400
S2647       S  0.64526510  0.93050227  0.90003792    -0.32900
S2648       S  0.60792425  0.55197022  0.84485547    -0.32900
H2649       H  0.60558202  0.54130317  0.81713961     0.28500
H2650       H  0.67421028  0.93682670  0.89812557     0.28400
H2651       H  0.60770458  0.94465657  0.85588233     0.19000
H2652       H  0.64241516  0.53907276  0.89192991     0.19000
C2653       C  0.89263005  0.00782527  0.65176840    -0.06800
C2654       C  0.88439701  0.53279172  0.63780879    -0.17900
C2655       C  0.86730846  0.53211219  0.61360246     0.10400
C2656       C  0.85733054  0.00607959  0.60320444    -0.06700
C2657       C  0.86611409  0.98071252  0.61686163    -0.17900
C2658       C  0.88339257  0.98129400  0.64087720     0.10400
S2659       S  0.85781320  0.56623209  0.59850173    -0.32900
S2660       S  0.89213317  0.94743236  0.65721799    -0.32900
H2661       H  0.89370968  0.95811885  0.68498023     0.28500
H2662       H  0.87007477  0.55978845  0.57218093     0.28400
H2663       H  0.89174178  0.55328493  0.64566753     0.19000
H2664       H  0.85899211  0.96009406  0.60915886     0.19000
C2665       C  0.99190238  0.87222375  0.58703551    -0.06800
C2666       C  0.97685399  0.86862642  0.61232586    -0.17900
C2667       C  0.97936942  0.88801893  0.63461157     0.10400
C2668       C  0.49800942  0.91046794  0.63380324    -0.06700
C2669       C  0.51330202  0.91455536  0.60879464    -0.17900
C2670       C  0.51123241  0.89494472  0.58633832     0.10400
S2671       S  0.95898893  0.88090841  0.66606695    -0.32900
S2672       S  0.53138371  0.90241150  0.55493714    -0.32900
H2673       H  0.51099072  0.89167649  0.53609147     0.28500
H2674       H  0.95343579  0.90970479  0.67279494     0.28400
H2675       H  0.96358504  0.84998514  0.61519721     0.19000
H2676       H  0.52691557  0.93306500  0.60676951     0.19000
C2677       C  0.00231110  0.58832177  0.86930338    -0.06800
C2678       C  0.98311470  0.58754905  0.89176398    -0.17900
C2679       C  0.98505544  0.60719044  0.91420327     0.10400
C2680       C  0.50542895  0.63012346  0.91227029    -0.06700
C2681       C  0.52119170  0.63290193  0.88733037    -0.17900
C2682       C  0.51952793  0.61261305  0.86579439     0.10400
S2683       S  0.95972773  0.60368345  0.94235521    -0.32900
S2684       S  0.54048368  0.61887094  0.83454149    -0.32900
H2685       H  0.54638215  0.58991191  0.82886485     0.28500
H2686       H  0.97879298  0.61130563  0.96390199     0.28400
H2687       H  0.96654213  0.57159041  0.89181524     0.19000
H2688       H  0.53433639  0.65159740  0.88409865     0.19000
loop_ 
_geom_bond_atom_site_label_1 
_geom_bond_atom_site_label_2 
_geom_bond_distance 
_geom_bond_site_symmetry_2 
_ccdc_geom_bond_type 
O1           C36   1.234       .  S
O1           Mg9   2.148       .  S
O1         Mg675   2.150   1_545  S
C2           O15   1.236       .  S
C2           O39   1.270       .  A
C2           H41   1.081       .  S
Mg3          O32   2.159       .  S
Mg3         O673   2.151       .  S
Mg3          O47   2.275       .  S
Mg3          O43   2.257       .  S
Mg3        O1358   2.296       .  S
O4           C25   1.236       .  S
O4          Mg46   2.163       .  S
O4        Mg1373   2.153   1_455  S
O5           C36   1.268       .  A
O5          Mg29   2.299       .  S
C6            O8   1.271       .  A
C6           O20   1.279       .  A
C6          C277   1.487       .  S
O7           C35   1.272       .  A
O7         Mg681   2.310       .  S
O8          Mg40   2.254       .  S
Mg9          O15   2.150       .  S
Mg9          O23   2.289       .  S
Mg9          O11   2.331       .  S
Mg9         O679   2.316   1_545  S
C10          O16   1.271   1_565  A
C10         O720   1.273       .  A
C10         C289   1.473       .  S
O11          C18   1.279       .  A
H12          C25   1.079       .  S
C13          O27   1.233       .  S
C13          O28   1.268       .  A
C13          H38   1.081       .  S
O14          C37   1.270       .  A
O14       Mg1347   2.296   1_455  S
O15         Mg29   2.160       .  S
O16         Mg46   2.273       .  S
C17          O22   1.273       .  A
C17        O1374   1.270       .  A
C17         C325   1.471       .  S
C18          O45   1.273       .  A
C18         C268   1.488       .  S
Mg19         O26   2.150       .  S
Mg19         O27   2.162       .  S
Mg19         O20   2.333       .  S
Mg19         O48   2.286       .  S
Mg19        O693   2.306       .  S
O21          C25   1.271       .  A
O21        Mg691   2.306   1_545  S
O22         Mg29   2.295       .  S
O23         C714   1.273       .  A
O24          C44   1.273       .  A
O24         Mg40   2.303       .  S
O26          C37   1.236       .  S
O26         Mg40   2.160       .  S
O27        Mg718   2.153       .  S
O28         Mg40   2.298       .  S
Mg29       O1348   2.154       .  S
Mg29         O45   2.270       .  S
O30        C1361   1.270       .  A
O30         Mg46   2.271       .  S
H31          C36   1.081       .  S
O32          C35   1.237       .  S
O32       Mg1384   2.152       .  S
H33          C35   1.079       .  S
H34          C37   1.081       .  S
O39       Mg1390   2.295       .  S
Mg40       O1376   2.151   1_455  S
C42          O47   1.270       .  A
C42         O695   1.275       .  A
C42         C301   1.476       .  S
O43        C1388   1.268       .  A
C44        O1387   1.269   1_455  A
C44         C316   1.473   1_455  S
Mg46        O699   2.158   1_545  S
Mg46       O1383   2.296   1_455  S
O48         C682   1.274       .  A
O49          C84   1.235       .  S
O49         Mg51   2.161   1_655  S
O49       Mg1401   2.163       .  S
C50         O399   1.236       .  S
C50          O87   1.272       .  A
C50          H89   1.080       .  S
Mg51        O416   2.150   1_554  S
Mg51         O95   2.306       .  S
Mg51         O91   2.285       .  S
Mg51         O62   2.302       .  S
O52        C1417   1.233       .  S
O52         Mg77   2.135       .  S
O52        Mg430   2.142   1_554  S
O53        C1428   1.270       .  A
O53         Mg77   2.300       .  S
C54          O56   1.271       .  A
C54          O68   1.274       .  A
C54         C244   1.499       .  S
O55         C419   1.268       .  A
O55         Mg57   2.299   1_556  S
O56         Mg88   2.249       .  S
Mg57         O63   2.158       .  S
Mg57       O1393   2.167       .  S
Mg57         O71   2.262       .  S
Mg57         O59   2.318       .  S
C58          O96   1.274       .  A
C58        O1408   1.277   1_455  A
C58         C328   1.484       .  S
O59          C66   1.275       .  A
H60          C73   1.081       .  S
C61          O75   1.235       .  S
C61        O1420   1.269       .  A
C61          H86   1.081       .  S
O62          C85   1.270       .  A
O63         C386   1.236   1_554  S
O63         Mg77   2.160       .  S
O64        C1402   1.276       .  A
O64         Mg94   2.312       .  S
C65          O78   1.273       .  A
C65         O406   1.274       .  A
C65         C217   1.496       .  S
C66          O93   1.269       .  A
C66         C256   1.495       .  S
Mg67         O74   2.153       .  S
Mg67       O1419   2.166   1_455  S
Mg67         O68   2.314       .  S
Mg67         O69   2.296       .  S
Mg67         O96   2.259       .  S
O69         C409   1.268   1_455  A
O70         C401   1.274   1_554  A
O70         Mg77   2.300       .  S
O71          C90   1.274       .  A
O72         C428   1.274       .  A
O72         Mg88   2.297       .  S
C73        O1396   1.234       .  S
C73         O405   1.268   1_654  A
O74         C421   1.235       .  S
O74         Mg88   2.157       .  S
O75         Mg94   2.154       .  S
O75       Mg1411   2.167       .  S
O76        C1405   1.269   1_455  A
O76         Mg88   2.296       .  S
Mg77         O93   2.235       .  S
O78         Mg94   2.280       .  S
H79          C84   1.081   1_455  S
O80        C1427   1.234       .  S
O80         Mg88   2.146       .  S
O80        Mg387   2.152       .  S
H81          C83   1.081       .  S
H82          C85   1.080       .  S
C83        O1424   1.233       .  S
C83         O391   1.268       .  A
C84        O1397   1.270       .  A
C85         O410   1.236   1_554  S
O87         Mg94   2.309       .  S
C90        O1439   1.275       .  A
C90         C313   1.482       .  S
O91          C92   1.273       .  A
C92         O408   1.274   1_554  A
C92         C232   1.496       .  S
Mg94        O388   2.142       .  S
O95        C1434   1.275   1_455  A
O97         C132   1.235       .  S
O97         Mg99   2.145       .  S
O97        Mg105   2.148       .  S
C98         O111   1.235       .  S
C98         O135   1.269       .  A
C98         H137   1.081       .  S
Mg99        O128   2.170       .  S
Mg99        O143   2.316       .  S
Mg99        O139   2.248       .  S
Mg99        O110   2.296       .  S
O100        C121   1.236       .  S
O100       Mg142   2.160       .  S
O100       Mg125   2.156       .  S
O101        C132   1.270       .  A
O101       Mg125   2.303       .  S
C102        O104   1.275       .  A
C102        O116   1.274       .  A
C102        C193   1.481       .  S
O103        C131   1.271       .  A
O103       Mg105   2.304       .  S
O104       Mg136   2.283       .  S
Mg105       O111   2.155       .  S
Mg105       O119   2.286       .  S
Mg105       O107   2.306       .  S
C106        O144   1.275       .  A
C106        O112   1.270       .  A
C106        C280   1.496       .  S
O107        C114   1.277       .  A
H108        C121   1.081       .  S
C109        O123   1.234       .  S
C109        O124   1.268       .  A
C109        H134   1.080       .  S
O110        C133   1.269       .  A
O111       Mg125   2.165       .  S
O112       Mg142   2.291       .  S
C113        O126   1.268       .  A
C113        O118   1.279       .  A
C113        C241   1.484       .  S
C114        O141   1.275       .  A
C114        C205   1.490       .  S
Mg115       O122   2.156       .  S
Mg115       O123   2.149       .  S
Mg115       O116   2.293       .  S
Mg115       O117   2.301       .  S
Mg115       O144   2.291       .  S
O117        C121   1.270       .  A
O118       Mg125   2.341       .  S
O119        C138   1.274       .  A
O120        C140   1.275       .  A
O120       Mg136   2.307       .  S
O122        C133   1.235       .  S
O122       Mg136   2.173       .  S
O123       Mg142   2.133       .  S
O124       Mg136   2.295       .  S
Mg125       O141   2.279       .  S
O126       Mg142   2.226       .  S
H127        C132   1.081       .  S
O128        C131   1.236       .  S
O128       Mg136   2.164       .  S
H129        C131   1.081       .  S
H130        C133   1.081       .  S
O135       Mg142   2.293       .  S
C138        O143   1.276       .  A
C138        C265   1.495       .  S
O139        C140   1.271       .  A
C140        C253   1.473       .  S
O145        C180   1.235       .  S
O145       Mg147   2.159       .  S
O145       Mg825   2.156       .  S
C146        O495   1.235       .  S
C146        O183   1.270   1_556  A
C146        H185   1.081       .  S
Mg147       O512   2.158       .  S
Mg147       O191   2.320       .  S
Mg147       O187   2.283       .  S
Mg147       O158   2.298       .  S
O148        C841   1.234   1_545  S
O148       Mg173   2.151       .  S
O148       Mg526   2.164       .  S
O149        C852   1.271   1_545  A
O149       Mg173   2.303       .  S
C150        O152   1.272       .  A
C150        O164   1.273       .  A
C150        C196   1.497       .  S
O151        C515   1.269   1_545  A
O151       Mg153   2.298       .  S
O152       Mg184   2.264       .  S
Mg153       O159   2.152       .  S
Mg153       O817   2.155   1_545  S
Mg153       O167   2.243       .  S
Mg153       O155   2.304       .  S
C154        O192   1.272       .  A
C154        O832   1.278       .  A
C154        C304   1.496       .  S
O155        C162   1.274       .  A
H156        C169   1.081       .  S
C157        O171   1.236       .  S
C157        O844   1.270   1_545  A
C157        H182   1.081       .  S
O158        C181   1.269       .  A
O159        C482   1.235       .  S
O159       Mg173   2.153       .  S
O160        C826   1.278       .  A
O160       Mg190   2.333       .  S
C161        O174   1.278   1_556  A
C161        O502   1.274       .  A
C161        C220   1.492       .  S
C162        O189   1.270       .  A
C162        C208   1.496       .  S
Mg163       O170   2.150       .  S
Mg163       O843   2.171       .  S
Mg163       O164   2.307       .  S
Mg163       O165   2.295       .  S
Mg163       O192   2.250       .  S
O165        C505   1.268   1_554  A
O166        C497   1.274       .  A
O166       Mg173   2.287       .  S
O167        C186   1.271   1_545  A
O168        C524   1.276   1_554  A
O168       Mg184   2.306       .  S
C169        O820   1.234       .  S
C169        O501   1.268       .  A
O170        C517   1.235       .  S
O170       Mg184   2.163       .  S
O171       Mg190   2.162       .  S
O171       Mg835   2.171   1_545  S
O172        C829   1.270       .  A
O172       Mg184   2.298       .  S
Mg173       O189   2.267       .  S
O174       Mg190   2.304       .  S
H175        C180   1.081       .  S
O176        C851   1.235       .  S
O176       Mg184   2.146       .  S
O176       Mg483   2.158   1_554  S
H177        C179   1.082       .  S
H178        C181   1.080       .  S
C179        O848   1.235   1_545  S
C179        O487   1.269   1_554  A
C180        O821   1.270       .  A
C181        O506   1.235       .  S
O183       Mg190   2.302       .  S
C186        O863   1.276       .  A
C186        C292   1.489       .  S
O187        C188   1.275       .  A
C188        O504   1.275       .  A
C188        C229   1.492       .  S
Mg190       O484   2.165   1_554  S
O191        C858   1.276       .  A
C193        C194   1.402       .  A
C193        C198   1.413       .  A
C194        H203   1.084       .  S
C194        C195   1.406       .  A
C195        C196   1.422       .  A
C195        S199   1.802       .  S
C196        C197   1.408       .  A
C197        H204   1.084       .  S
C197        C198   1.397       .  A
C198        S200   1.802       .  S
S199        H202   1.408       .  S
S200        H201   1.407       .  S
C205        C206   1.407       .  A
C205        C210   1.413       .  A
C206        H215   1.082       .  S
C206        C207   1.405       .  A
C207        C208   1.418       .  A
C207        S211   1.811       .  S
C208        C209   1.410       .  A
C209        H216   1.083       .  S
C209        C210   1.401       .  A
C210        S212   1.803       .  S
S211        H214   1.407       .  S
S212        H213   1.407       .  S
C217        C222   1.416       .  A
C217        C554   1.411       .  A
C218        H227   1.084       .  S
C218        C219   1.402       .  A
C218        C553   1.411   1_554  A
C219        C220   1.411   1_554  A
C219        S223   1.802       .  S
C220        C557   1.410       .  A
C221        H228   1.083       .  S
C221        C222   1.406       .  A
C221        C556   1.410       .  A
C222        S224   1.810       .  S
S223        H226   1.407       .  S
S224        H225   1.407       .  S
C229        C234   1.414       .  A
C229        C566   1.409       .  A
C230        H239   1.084       .  S
C230        C231   1.403       .  A
C230        C565   1.409       .  A
C231        C232   1.417       .  A
C231        S235   1.803       .  S
C232        C569   1.411   1_554  A
C233        H240   1.083       .  S
C233        C234   1.402       .  A
C233        C568   1.411       .  A
C234        S236   1.803       .  S
S235        H238   1.407       .  S
S236        H237   1.407       .  S
C241        C242   1.404       .  A
C241        C246   1.412       .  A
C242        H251   1.083       .  S
C242        C243   1.410       .  A
C243        C244   1.424       .  A
C243        S247   1.810       .  S
C244        C245   1.409       .  A
C245        H252   1.084       .  S
C245        C246   1.395       .  A
C246        S248   1.805       .  S
S247        H250   1.406       .  S
S248        H249   1.407       .  S
C253        C254   1.402       .  A
C253        C258   1.407       .  A
C254        H263   1.085       .  S
C254        C255   1.402       .  A
C255        C256   1.421       .  A
C255        S259   1.801       .  S
C256        C257   1.412       .  A
C257        H264   1.084       .  S
C257        C258   1.396       .  A
C258        S260   1.805       .  S
S259        H262   1.407       .  S
S260        H261   1.407       .  S
C265        C266   1.410       .  A
C265        C270   1.416       .  A
C266        H275   1.084       .  S
C266        C267   1.404       .  A
C267        C268   1.412       .  A
C267        S271   1.803       .  S
C268        C269   1.407       .  A
C269        H276   1.084       .  S
C269        C270   1.403       .  A
C270        S272   1.803       .  S
S271        H274   1.407       .  S
S272        H273   1.407       .  S
C277        C278   1.401       .  A
C277        C282   1.417       .  A
C278        H287   1.084       .  S
C278        C279   1.403       .  A
C279        C280   1.424       .  A
C279        S283   1.801       .  S
C280        C281   1.405       .  A
C281        H288   1.084       .  S
C281        C282   1.402       .  A
C282        S284   1.801       .  S
S283        H286   1.408       .  S
S284        H285   1.407       .  S
C289        C294   1.410   1_565  A
C289        C962   1.402       .  A
C290        H299   1.084       .  S
C290        C291   1.401       .  A
C290        C961   1.402       .  A
C291        C964   1.419       .  A
C291        S295   1.802       .  S
C292        C293   1.408   1_565  A
C292        C963   1.420       .  A
C293        H300   1.084       .  S
C293        C294   1.397       .  A
C294        S296   1.805       .  S
S295        H298   1.407       .  S
S296        H297   1.407       .  S
C301        C306   1.412       .  A
C301        C974   1.401       .  A
C302        H311   1.084       .  S
C302        C303   1.403       .  A
C302        C973   1.401       .  A
C303        C976   1.422       .  A
C303        S307   1.801       .  S
C304        C305   1.411       .  A
C304        C975   1.421       .  A
C305        H312   1.084       .  S
C305        C306   1.400       .  A
C306        S308   1.806       .  S
S307        H310   1.408       .  S
S308        H309   1.407       .  S
C313        C314   1.404       .  A
C313       C1662   1.418       .  A
C314        H323   1.083       .  S
C314        C315   1.394       .  A
C315       C1660   1.411       .  A
C315        S319   1.807       .  S
C316        C317   1.402   1_655  A
C316       C1659   1.411       .  A
C317        H324   1.083       .  S
C317        C318   1.407       .  A
C318       C1657   1.419   1_455  A
C318        S320   1.802       .  S
S319        H322   1.406       .  S
S320        H321   1.407       .  S
C325        C326   1.403       .  A
C325       C1674   1.411       .  A
C326        H335   1.083       .  S
C326        C327   1.407       .  A
C327       C1672   1.418       .  A
C327        S331   1.802       .  S
C328        C329   1.404       .  A
C328       C1671   1.418   1_455  A
C329        H336   1.084       .  S
C329        C330   1.394       .  A
C330       C1669   1.412       .  A
C330        S332   1.806       .  S
S331        H334   1.407       .  S
S332        H333   1.406       .  S
O337        C372   1.234       .  S
O337      Mg1011   2.153   1_545  S
O337       Mg345   2.154       .  S
C338        O351   1.236       .  S
C338        O375   1.270       .  A
C338        H377   1.081       .  S
Mg339      O1009   2.152       .  S
Mg339       O368   2.160       .  S
Mg339       O383   2.277       .  S
Mg339       O379   2.259       .  S
Mg339      O1694   2.296       .  S
O340        C361   1.236       .  S
O340       Mg382   2.164       .  S
O340      Mg1709   2.154   1_455  S
O341        C372   1.268       .  A
O341       Mg365   2.299       .  S
C342        O344   1.270       .  A
C342        O356   1.279       .  A
C342        C613   1.486       .  S
O343        C371   1.272       .  A
O343      Mg1017   2.310       .  S
O344       Mg376   2.254       .  S
Mg345       O351   2.154       .  S
Mg345      O1015   2.310   1_545  S
Mg345       O359   2.296       .  S
Mg345       O347   2.340       .  S
C346       O1056   1.273       .  A
C346        O352   1.270   1_565  A
C346        C625   1.474       .  S
O347        C354   1.281       .  A
H348        C361   1.079       .  S
C349        O363   1.233       .  S
C349        O364   1.267       .  A
C349        H374   1.082       .  S
O350        C373   1.269       .  A
O350      Mg1683   2.295   1_455  S
O351       Mg365   2.160       .  S
O352       Mg382   2.267       .  S
C353       O1710   1.269       .  A
C353        O358   1.274       .  A
C353        C661   1.471       .  S
C354        O381   1.273       .  A
C354        C604   1.489       .  S
Mg355       O362   2.148       .  S
Mg355       O363   2.161       .  S
Mg355       O356   2.331       .  S
Mg355      O1029   2.308       .  S
Mg355       O384   2.283       .  S
O357        C361   1.271       .  A
O357      Mg1027   2.306   1_545  S
O358       Mg365   2.300       .  S
O359       C1050   1.275       .  A
O360        C380   1.273       .  A
O360       Mg376   2.298       .  S
O362        C373   1.235       .  S
O362       Mg376   2.160       .  S
O363      Mg1054   2.150       .  S
O364       Mg376   2.297       .  S
Mg365      O1684   2.155       .  S
Mg365       O381   2.268       .  S
O366       C1697   1.269       .  A
O366       Mg382   2.265       .  S
H367        C372   1.081       .  S
O368        C371   1.237       .  S
O368      Mg1720   2.152       .  S
H369        C371   1.079       .  S
H370        C373   1.081       .  S
O375      Mg1726   2.297       .  S
Mg376      O1712   2.150   1_455  S
C378       O1031   1.275       .  A
C378        O383   1.271       .  A
C378        C637   1.477       .  S
O379       C1724   1.268       .  A
C380       O1723   1.269   1_455  A
C380        C652   1.472   1_455  S
Mg382      O1035   2.154   1_545  S
Mg382      O1719   2.295   1_455  S
O384       C1018   1.274       .  A
O385        C420   1.235       .  S
O385       Mg387   2.164   1_655  S
O385      Mg1737   2.166       .  S
C386        O423   1.271       .  A
C386        H425   1.080       .  S
Mg387       O431   2.303       .  S
Mg387       O427   2.287       .  S
Mg387       O398   2.299       .  S
O388       C1753   1.234       .  S
O388       Mg413   2.136       .  S
O389       C1764   1.270       .  A
O389       Mg413   2.301       .  S
C390        O392   1.271       .  A
C390        O404   1.274       .  A
C390        C580   1.499       .  S
O391       Mg393   2.299       .  S
O392       Mg424   2.247       .  S
Mg393      O1729   2.168       .  S
Mg393       O399   2.160       .  S
Mg393       O407   2.263       .  S
Mg393       O395   2.318       .  S
C394        O432   1.274       .  A
C394       O1744   1.275   1_455  A
C394        C664   1.488       .  S
O395        C402   1.274       .  A
H396        C409   1.081       .  S
C397        O411   1.235       .  S
C397       O1756   1.269       .  A
C397        H422   1.081       .  S
O398        C421   1.269       .  A
O399       Mg413   2.160       .  S
O400       C1738   1.275       .  A
O400       Mg430   2.310       .  S
C401        O414   1.272       .  A
C401        C553   1.496       .  S
C402        O429   1.269       .  A
C402        C592   1.495       .  S
Mg403       O410   2.156       .  S
Mg403      O1755   2.167       .  S
Mg403       O404   2.317       .  S
Mg403       O405   2.296       .  S
Mg403       O432   2.265       .  S
O406       Mg413   2.301       .  S
O407        C426   1.274       .  A
O408       Mg424   2.297       .  S
C409       O1732   1.234       .  S
O410       Mg424   2.159       .  S
O411      Mg1747   2.168       .  S
O411       Mg430   2.155       .  S
O412       C1741   1.269   1_455  A
O412       Mg424   2.295       .  S
Mg413       O429   2.235       .  S
O414       Mg430   2.280       .  S
H415        C420   1.081   1_455  S
O416       C1763   1.234       .  S
O416       Mg424   2.147       .  S
H417        C419   1.081       .  S
H418        C421   1.080       .  S
C419       O1760   1.234       .  S
C420       O1733   1.270       .  A
O423       Mg430   2.309       .  S
C426       O1775   1.275       .  A
C426        C649   1.483       .  S
O427        C428   1.273       .  A
C428        C568   1.497       .  S
O431       C1770   1.274   1_455  A
O433        C468   1.235       .  S
O433       Mg435   2.142       .  S
O433       Mg441   2.147       .  S
C434        O447   1.235       .  S
C434        O471   1.269       .  A
C434        H473   1.081       .  S
Mg435       O464   2.169       .  S
Mg435       O479   2.318       .  S
Mg435       O475   2.246       .  S
Mg435       O446   2.296       .  S
O436        C457   1.235       .  S
O436       Mg478   2.161       .  S
O436       Mg461   2.154       .  S
O437        C468   1.270       .  A
O437       Mg461   2.301       .  S
C438        O440   1.274       .  A
C438        O452   1.273       .  A
C438        C529   1.479       .  S
O439        C467   1.271       .  A
O439       Mg441   2.304       .  S
O440       Mg472   2.281       .  S
Mg441       O447   2.156       .  S
Mg441       O455   2.290       .  S
Mg441       O443   2.305       .  S
C442        O480   1.275       .  A
C442        O448   1.270       .  A
C442        C616   1.497       .  S
O443        C450   1.277       .  A
H444        C457   1.081       .  S
C445        O459   1.234       .  S
C445        O460   1.268       .  A
C445        H470   1.080       .  S
O446        C469   1.269       .  A
O447       Mg461   2.167       .  S
O448       Mg478   2.291       .  S
C449        O462   1.268       .  A
C449        O454   1.279       .  A
C449        C577   1.482       .  S
C450        O477   1.275       .  A
C450        C541   1.490       .  S
Mg451       O458   2.158       .  S
Mg451       O459   2.151       .  S
Mg451       O452   2.289       .  S
Mg451       O453   2.298       .  S
Mg451       O480   2.292       .  S
O453        C457   1.270       .  A
O454       Mg461   2.337       .  S
O455        C474   1.275       .  A
O456        C476   1.275       .  A
O456       Mg472   2.308       .  S
O458        C469   1.235       .  S
O458       Mg472   2.172       .  S
O459       Mg478   2.132       .  S
O460       Mg472   2.295       .  S
Mg461       O477   2.276       .  S
O462       Mg478   2.228       .  S
H463        C468   1.081       .  S
O464        C467   1.237       .  S
O464       Mg472   2.163       .  S
H465        C467   1.081       .  S
H466        C469   1.081       .  S
O471       Mg478   2.293       .  S
C474        O479   1.276       .  A
C474        C601   1.497       .  S
O475        C476   1.270       .  A
C476        C589   1.472       .  S
O481        C516   1.235       .  S
O481       Mg483   2.159       .  S
O481      Mg1161   2.155       .  S
C482        O519   1.270       .  A
C482        H521   1.081       .  S
Mg483       O527   2.317       .  S
Mg483       O523   2.284       .  S
Mg483       O494   2.298       .  S
O484       C1177   1.233   1_545  S
O484       Mg509   2.151       .  S
O485       C1188   1.271   1_545  A
O485       Mg509   2.303       .  S
C486        O488   1.273       .  A
C486        O500   1.273       .  A
C486        C532   1.496       .  S
O487       Mg489   2.299       .  S
O488       Mg520   2.264       .  S
Mg489      O1153   2.155   1_545  S
Mg489       O495   2.150       .  S
Mg489       O503   2.241       .  S
Mg489       O491   2.303       .  S
C490        O528   1.272       .  A
C490       O1168   1.278       .  A
C490        C640   1.497       .  S
O491        C498   1.274       .  A
H492        C505   1.081       .  S
C493        O507   1.236       .  S
C493       O1180   1.270   1_545  A
C493        H518   1.081       .  S
O494        C517   1.269   1_556  A
O495       Mg509   2.152       .  S
O496       C1162   1.279       .  A
O496       Mg526   2.334       .  S
C497        O510   1.278       .  A
C497        C556   1.492       .  S
C498        O525   1.270       .  A
C498        C544   1.496       .  S
Mg499       O506   2.149       .  S
Mg499      O1179   2.170       .  S
Mg499       O500   2.302       .  S
Mg499       O501   2.295       .  S
Mg499       O528   2.250       .  S
O502       Mg509   2.288       .  S
O503        C522   1.270   1_545  A
O504       Mg520   2.304       .  S
C505       O1156   1.234       .  S
O506       Mg520   2.162       .  S
O507      Mg1171   2.170   1_545  S
O507       Mg526   2.159       .  S
O508       C1165   1.270       .  A
O508       Mg520   2.297       .  S
Mg509       O525   2.269       .  S
O510       Mg526   2.305       .  S
H511        C516   1.081       .  S
O512       C1187   1.235       .  S
O512       Mg520   2.149       .  S
H513        C515   1.082       .  S
H514        C517   1.080       .  S
C515       O1184   1.234       .  S
C516       O1157   1.271       .  A
O519       Mg526   2.304       .  S
C522       O1199   1.276       .  A
C522        C628   1.486       .  S
O523        C524   1.275       .  A
C524        C565   1.492   1_556  S
O527       C1194   1.276       .  A
C529        C530   1.401       .  A
C529        C534   1.413       .  A
C530        H539   1.084       .  S
C530        C531   1.405       .  A
C531        C532   1.422       .  A
C531        S535   1.802       .  S
C532        C533   1.408       .  A
C533        H540   1.084       .  S
C533        C534   1.396       .  A
C534        S536   1.802       .  S
S535        H538   1.408       .  S
S536        H537   1.407       .  S
C541        C542   1.407       .  A
C541        C546   1.413       .  A
C542        H551   1.082       .  S
C542        C543   1.405       .  A
C543        C544   1.418       .  A
C543        S547   1.810       .  S
C544        C545   1.410       .  A
C545        H552   1.083       .  S
C545        C546   1.401       .  A
C546        S548   1.804       .  S
S547        H550   1.407       .  S
S548        H549   1.407       .  S
C553        C558   1.416       .  A
C554        H563   1.084       .  S
C554        C555   1.402       .  A
C555        C556   1.412       .  A
C555        S559   1.802       .  S
C557        H564   1.083       .  S
C557        C558   1.406       .  A
C558        S560   1.810       .  S
S559        H562   1.407       .  S
S560        H561   1.407       .  S
C565        C570   1.414   1_554  A
C566        H575   1.084       .  S
C566        C567   1.403       .  A
C567        C568   1.417       .  A
C567        S571   1.802       .  S
C569        H576   1.083       .  S
C569        C570   1.402       .  A
C570        S572   1.803       .  S
S571        H574   1.407       .  S
S572        H573   1.407       .  S
C577        C578   1.404       .  A
C577        C582   1.411       .  A
C578        H587   1.083       .  S
C578        C579   1.409       .  A
C579        C580   1.423       .  A
C579        S583   1.809       .  S
C580        C581   1.409       .  A
C581        H588   1.083       .  S
C581        C582   1.395       .  A
C582        S584   1.805       .  S
S583        H586   1.407       .  S
S584        H585   1.407       .  S
C589        C590   1.402       .  A
C589        C594   1.407       .  A
C590        H599   1.085       .  S
C590        C591   1.402       .  A
C591        C592   1.421       .  A
C591        S595   1.801       .  S
C592        C593   1.412       .  A
C593        H600   1.084       .  S
C593        C594   1.397       .  A
C594        S596   1.805       .  S
S595        H598   1.407       .  S
S596        H597   1.407       .  S
C601        C602   1.411       .  A
C601        C606   1.417       .  A
C602        H611   1.083       .  S
C602        C603   1.405       .  A
C603        C604   1.412       .  A
C603        S607   1.803       .  S
C604        C605   1.407       .  A
C605        H612   1.084       .  S
C605        C606   1.404       .  A
C606        S608   1.803       .  S
S607        H610   1.407       .  S
S608        H609   1.407       .  S
C613        C614   1.400       .  A
C613        C618   1.417       .  A
C614        H623   1.084       .  S
C614        C615   1.403       .  A
C615        C616   1.425       .  A
C615        S619   1.802       .  S
C616        C617   1.405       .  A
C617        H624   1.084       .  S
C617        C618   1.402       .  A
C618        S620   1.801       .  S
S619        H622   1.408       .  S
S620        H621   1.407       .  S
C625       C1298   1.402       .  A
C625        C630   1.412   1_565  A
C626        H635   1.084       .  S
C626       C1297   1.402       .  A
C626        C627   1.401       .  A
C627       C1300   1.419       .  A
C627        S631   1.802       .  S
C628       C1299   1.419       .  A
C628        C629   1.407   1_565  A
C629        H636   1.084       .  S
C629        C630   1.397       .  A
C630        S632   1.805       .  S
S631        H634   1.407       .  S
S632        H633   1.407       .  S
C637       C1310   1.401       .  A
C637        C642   1.412       .  A
C638        H647   1.084       .  S
C638       C1309   1.401       .  A
C638        C639   1.402       .  A
C639       C1312   1.421       .  A
C639        S643   1.800       .  S
C640       C1311   1.421       .  A
C640        C641   1.411       .  A
C641        H648   1.083       .  S
C641        C642   1.400       .  A
C642        S644   1.806       .  S
S643        H646   1.408       .  S
S644        H645   1.407       .  S
C649        C650   1.404       .  A
C649       C1998   1.417       .  A
C650        H659   1.083       .  S
C650        C651   1.395       .  A
C651       C1996   1.411       .  A
C651        S655   1.807       .  S
C652       C1995   1.412       .  A
C652        C653   1.401   1_655  A
C653        H660   1.083       .  S
C653        C654   1.406       .  A
C654       C1993   1.419   1_455  A
C654        S656   1.802       .  S
S655        H658   1.406       .  S
S656        H657   1.407       .  S
C661        C662   1.403       .  A
C661       C2010   1.412       .  A
C662        H671   1.083       .  S
C662        C663   1.407       .  A
C663       C2008   1.417       .  A
C663        S667   1.802       .  S
C664       C2007   1.420   1_455  A
C664        C665   1.405       .  A
C665        H672   1.083       .  S
C665        C666   1.395       .  A
C666       C2005   1.412       .  A
C666        S668   1.807       .  S
S667        H670   1.407       .  S
S668        H669   1.405       .  S
O673        C708   1.233       .  S
O673       Mg681   2.154       .  S
C674        O687   1.236       .  S
C674        O711   1.270       .  A
C674        H713   1.081       .  S
Mg675       O704   2.145       .  S
Mg675       O719   2.283       .  S
Mg675       O715   2.252       .  S
Mg675      O2030   2.306       .  S
O676        C697   1.237       .  S
O676       Mg718   2.166       .  S
O676      Mg2045   2.156   1_455  S
O677        C708   1.268       .  A
O677       Mg701   2.298       .  S
C678        O680   1.270       .  A
C678        O692   1.279       .  A
C678        C949   1.487       .  S
O679        C707   1.273       .  A
O680       Mg712   2.254       .  S
Mg681       O687   2.153       .  S
Mg681       O695   2.290       .  S
Mg681       O683   2.339       .  S
C682        O688   1.270       .  A
C682        C961   1.476       .  S
O683        C690   1.280       .  A
H684        C697   1.079       .  S
C685        O699   1.233       .  S
C685        O700   1.268       .  A
C685        H710   1.082       .  S
O686        C709   1.270       .  A
O686      Mg2019   2.298   1_455  S
O687       Mg701   2.161       .  S
O688       Mg718   2.269       .  S
C689       O2046   1.269       .  A
C689        O694   1.274       .  A
C689        C997   1.472       .  S
C690        O717   1.273       .  A
C690        C940   1.489       .  S
Mg691       O698   2.150       .  S
Mg691       O699   2.163       .  S
Mg691       O692   2.332       .  S
Mg691       O720   2.281       .  S
O693        C697   1.272       .  A
O694       Mg701   2.299       .  S
O696        C716   1.272   1_455  A
O696       Mg712   2.304       .  S
O698        C709   1.236       .  S
O698       Mg712   2.159       .  S
O700       Mg712   2.299       .  S
Mg701      O2020   2.154       .  S
Mg701       O717   2.268       .  S
O702       C2033   1.269       .  A
O702       Mg718   2.264       .  S
H703        C708   1.081       .  S
O704        C707   1.237       .  S
O704      Mg2056   2.160       .  S
H705        C707   1.079       .  S
H706        C709   1.081       .  S
O711      Mg2062   2.297       .  S
Mg712      O2048   2.151   1_455  S
C714        O719   1.271   1_545  A
C714        C973   1.475       .  S
O715       C2060   1.268       .  A
C716       O2059   1.268       .  A
C716        C988   1.471       .  S
Mg718      O2055   2.294   1_455  S
O721        C756   1.235       .  S
O721       Mg723   2.158   1_655  S
O721      Mg2073   2.168       .  S
C722       O1071   1.236       .  S
C722        O759   1.272       .  A
C722        H761   1.080       .  S
Mg723      O1088   2.151   1_554  S
Mg723       O767   2.296       .  S
Mg723       O763   2.283       .  S
Mg723       O734   2.300       .  S
O724       C2089   1.234       .  S
O724      Mg1102   2.145   1_554  S
O724       Mg749   2.139       .  S
O725       C2100   1.270       .  A
O725       Mg749   2.299       .  S
C726        O728   1.271       .  A
C726        O740   1.275       .  A
C726        C916   1.499       .  S
O727       C1091   1.267   1_554  A
O727       Mg729   2.292       .  S
O728       Mg760   2.246       .  S
Mg729      O2065   2.177       .  S
Mg729       O735   2.165       .  S
Mg729       O743   2.275       .  S
Mg729       O731   2.328       .  S
C730        O768   1.274       .  A
C730       O2080   1.275   1_455  A
C730       C1000   1.488       .  S
O731        C738   1.276       .  A
H732        C745   1.081       .  S
C733        O747   1.235       .  S
C733       O2092   1.270       .  A
C733        H758   1.081       .  S
O734        C757   1.270       .  A
O735       C1058   1.236   1_554  S
O735       Mg749   2.158       .  S
O736       C2074   1.276       .  A
O736       Mg766   2.312       .  S
C737        O750   1.272       .  A
C737       O1078   1.274       .  A
C737        C889   1.497       .  S
C738        O765   1.270       .  A
C738        C928   1.497       .  S
Mg739       O746   2.153       .  S
Mg739      O2091   2.169       .  S
Mg739       O740   2.319       .  S
Mg739       O741   2.295       .  S
Mg739       O768   2.263       .  S
O741       C1081   1.268   1_455  A
O742       C1073   1.275   1_554  A
O742       Mg749   2.311       .  S
O743        C762   1.277       .  A
O744       C1100   1.273       .  A
O744       Mg760   2.295       .  S
C745       O2068   1.234       .  S
C745       O1077   1.268   1_655  A
O746       C1093   1.236       .  S
O746       Mg760   2.158       .  S
O747      Mg2083   2.167       .  S
O747       Mg766   2.154       .  S
O748       C2077   1.269   1_455  A
O748       Mg760   2.294       .  S
Mg749       O765   2.236       .  S
O750       Mg766   2.280       .  S
H751        C756   1.081   1_455  S
O752       C2099   1.234       .  S
O752      Mg1059   2.148       .  S
O752       Mg760   2.146       .  S
H753        C755   1.081       .  S
H754        C757   1.080       .  S
C755       O2096   1.233       .  S
C755       O1063   1.268       .  A
C756       O2069   1.269       .  A
C757       O1082   1.235   1_554  S
O759       Mg766   2.310       .  S
C762       O2111   1.273       .  A
C762        C985   1.496       .  S
O763        C764   1.273       .  A
C764       O1080   1.274   1_554  A
C764        C904   1.496       .  S
Mg766      O1060   2.142       .  S
O767       C2106   1.273   1_455  A
O769        C804   1.235       .  S
O769       Mg771   2.150       .  S
O769       Mg777   2.149       .  S
C770        O783   1.235       .  S
C770        O807   1.269       .  A
C770        H809   1.081       .  S
Mg771       O800   2.171       .  S
Mg771       O815   2.317       .  S
Mg771       O811   2.252       .  S
Mg771       O782   2.294       .  S
O772        C793   1.236       .  S
O772       Mg814   2.161       .  S
O772       Mg797   2.154       .  S
O773        C804   1.270       .  A
O773       Mg797   2.304       .  S
C774        O776   1.275       .  A
C774        O788   1.273       .  A
C774        C865   1.480       .  S
O775        C803   1.271       .  A
O775       Mg777   2.305       .  S
O776       Mg808   2.285       .  S
Mg777       O783   2.159       .  S
Mg777       O791   2.290       .  S
Mg777       O779   2.312       .  S
C778        O816   1.275       .  A
C778        O784   1.271       .  A
C778        C952   1.498       .  S
O779        C786   1.278       .  A
H780        C793   1.081       .  S
C781        O795   1.234       .  S
C781        O796   1.268       .  A
C781        H806   1.080       .  S
O782        C805   1.269       .  A
O783       Mg797   2.165       .  S
O784       Mg814   2.293       .  S
C785        O798   1.268       .  A
C785        O790   1.279       .  A
C785        C913   1.482       .  S
C786        O813   1.275       .  A
C786        C877   1.491       .  S
Mg787       O794   2.155       .  S
Mg787       O795   2.152       .  S
Mg787       O788   2.287       .  S
Mg787       O789   2.298       .  S
Mg787       O816   2.290       .  S
O789        C793   1.270       .  A
O790       Mg797   2.339       .  S
O791        C810   1.275       .  A
O792        C812   1.275       .  A
O792       Mg808   2.311       .  S
O794        C805   1.235       .  S
O794       Mg808   2.172       .  S
O795       Mg814   2.132       .  S
O796       Mg808   2.295       .  S
Mg797       O813   2.276       .  S
O798       Mg814   2.229       .  S
H799        C804   1.081       .  S
O800        C803   1.236       .  S
O800       Mg808   2.166       .  S
H801        C803   1.081       .  S
H802        C805   1.081       .  S
O807       Mg814   2.295       .  S
C810        O815   1.276       .  A
C810        C937   1.496       .  S
O811        C812   1.271       .  A
C812        C925   1.475       .  S
O817        C852   1.235       .  S
O817       Mg819   2.158       .  S
C818       O1167   1.235       .  S
C818        O855   1.270   1_556  A
C818        H857   1.081       .  S
Mg819      O1184   2.157       .  S
Mg819       O863   2.321       .  S
Mg819       O859   2.287       .  S
Mg819       O830   2.299       .  S
O820      Mg1198   2.163       .  S
O820       Mg845   2.151       .  S
O821       Mg845   2.303       .  S
C822        O824   1.272       .  A
C822        O836   1.272       .  A
C822        C868   1.495       .  S
O823       C1187   1.269       .  A
O823       Mg825   2.300       .  S
O824       Mg856   2.264       .  S
Mg825       O831   2.149       .  S
Mg825       O839   2.241       .  S
Mg825       O827   2.308       .  S
C826        O864   1.272   1_545  A
C826        C976   1.499       .  S
O827        C834   1.275       .  A
H828        C841   1.081       .  S
C829        O843   1.236       .  S
C829        H854   1.081       .  S
O830        C853   1.269       .  A
O831       C1154   1.235       .  S
O831       Mg845   2.154       .  S
O832       Mg862   2.329       .  S
C833        O846   1.278   1_556  A
C833       O1174   1.274       .  A
C833        C892   1.494       .  S
C834        O861   1.270       .  A
C834        C880   1.498       .  S
Mg835       O842   2.149       .  S
Mg835       O836   2.300       .  S
Mg835       O837   2.294       .  S
Mg835       O864   2.248       .  S
O837       C1177   1.268   1_554  A
O838       C1169   1.273       .  A
O838       Mg845   2.286       .  S
O839        C858   1.270       .  A
O840       C1196   1.275   1_554  A
O840       Mg856   2.301       .  S
C841       O1173   1.268       .  A
O842       C1189   1.235       .  S
O842       Mg856   2.162       .  S
O843       Mg862   2.166       .  S
O844       Mg856   2.297       .  S
Mg845       O861   2.270       .  S
O846       Mg862   2.311       .  S
H847        C852   1.081       .  S
O848      Mg1155   2.157   1_554  S
O848       Mg856   2.145       .  S
H849        C851   1.082       .  S
H850        C853   1.080       .  S
C851       O1159   1.269   1_554  A
C853       O1178   1.235       .  S
O855       Mg862   2.302       .  S
C858        C964   1.486       .  S
O859        C860   1.275       .  A
C860       O1176   1.275       .  A
C860        C901   1.490       .  S
Mg862      O1156   2.163   1_554  S
C865        C866   1.401       .  A
C865        C870   1.413       .  A
C866        H875   1.084       .  S
C866        C867   1.405       .  A
C867        C868   1.422       .  A
C867        S871   1.802       .  S
C868        C869   1.407       .  A
C869        H876   1.084       .  S
C869        C870   1.396       .  A
C870        S872   1.802       .  S
S871        H874   1.408       .  S
S872        H873   1.407       .  S
C877        C878   1.407       .  A
C877        C882   1.414       .  A
C878        H887   1.082       .  S
C878        C879   1.406       .  A
C879        C880   1.419       .  A
C879        S883   1.810       .  S
C880        C881   1.410       .  A
C881        H888   1.083       .  S
C881        C882   1.401       .  A
C882        S884   1.804       .  S
S883        H886   1.407       .  S
S884        H885   1.407       .  S
C889       C1226   1.412       .  A
C889        C894   1.416       .  A
C890        H899   1.084       .  S
C890       C1225   1.411   1_554  A
C890        C891   1.403       .  A
C891        C892   1.412   1_554  A
C891        S895   1.802       .  S
C892       C1229   1.410       .  A
C893        H900   1.083       .  S
C893       C1228   1.410       .  A
C893        C894   1.406       .  A
C894        S896   1.810       .  S
S895        H898   1.407       .  S
S896        H897   1.407       .  S
C901       C1238   1.408       .  A
C901        C906   1.413       .  A
C902        H911   1.084       .  S
C902       C1237   1.408       .  A
C902        C903   1.402       .  A
C903        C904   1.417       .  A
C903        S907   1.803       .  S
C904       C1241   1.411   1_554  A
C905        H912   1.083       .  S
C905       C1240   1.412       .  A
C905        C906   1.402       .  A
C906        S908   1.803       .  S
S907        H910   1.407       .  S
S908        H909   1.407       .  S
C913        C914   1.404       .  A
C913        C918   1.411       .  A
C914        H923   1.083       .  S
C914        C915   1.410       .  A
C915        C916   1.423       .  A
C915        S919   1.809       .  S
C916        C917   1.409       .  A
C917        H924   1.083       .  S
C917        C918   1.395       .  A
C918        S920   1.805       .  S
S919        H922   1.407       .  S
S920        H921   1.407       .  S
C925        C926   1.404       .  A
C925        C930   1.407       .  A
C926        H935   1.084       .  S
C926        C927   1.404       .  A
C927        C928   1.421       .  A
C927        S931   1.802       .  S
C928        C929   1.412       .  A
C929        H936   1.084       .  S
C929        C930   1.396       .  A
C930        S932   1.805       .  S
S931        H934   1.407       .  S
S932        H933   1.407       .  S
C937        C938   1.411       .  A
C937        C942   1.416       .  A
C938        H947   1.084       .  S
C938        C939   1.405       .  A
C939        C940   1.412       .  A
C939        S943   1.803       .  S
C940        C941   1.407       .  A
C941        H948   1.084       .  S
C941        C942   1.403       .  A
C942        S944   1.803       .  S
S943        H946   1.407       .  S
S944        H945   1.407       .  S
C949        C950   1.400       .  A
C949        C954   1.417       .  A
C950        H959   1.084       .  S
C950        C951   1.403       .  A
C951        C952   1.425       .  A
C951        S955   1.802       .  S
C952        C953   1.406       .  A
C953        H960   1.084       .  S
C953        C954   1.402       .  A
C954        S956   1.801       .  S
S955        H958   1.408       .  S
S956        H957   1.407       .  S
C961        C966   1.412       .  A
C962        H971   1.084       .  S
C962        C963   1.401       .  A
C963        S967   1.802       .  S
C964        C965   1.406       .  A
C965        H972   1.084       .  S
C965        C966   1.397       .  A
C966        S968   1.805       .  S
S967        H970   1.407       .  S
S968        H969   1.407       .  S
C973        C978   1.409   1_545  A
C974        H983   1.084       .  S
C974        C975   1.401       .  A
C975        S979   1.801       .  S
C976        C977   1.412   1_545  A
C977        H984   1.083       .  S
C977        C978   1.399       .  A
C978        S980   1.805       .  S
S979        H982   1.408       .  S
S980        H981   1.407       .  S
C985        C986   1.408       .  A
C985       C2334   1.425       .  A
C986        H995   1.083       .  S
C986        C987   1.396       .  A
C987       C2332   1.411       .  A
C987        S991   1.805       .  S
C988       C2331   1.411       .  A
C988        C989   1.400   1_655  A
C989        H996   1.084       .  S
C989        C990   1.405       .  A
C990       C2329   1.423   1_455  A
C990        S992   1.802       .  S
S991        H994   1.406       .  S
S992        H993   1.407       .  S
C997        C998   1.403       .  A
C997       C2346   1.412       .  A
C998       H1007   1.083       .  S
C998        C999   1.407       .  A
C999       C2344   1.417       .  A
C999       S1003   1.802       .  S
C1000      C2343   1.420   1_455  A
C1000      C1001   1.405       .  A
C1001      H1008   1.083       .  S
C1001      C1002   1.395       .  A
C1002      C2341   1.412       .  A
C1002      S1004   1.808       .  S
S1003      H1006   1.407       .  S
S1004      H1005   1.404       .  S
O1009      C1044   1.233       .  S
O1009     Mg1017   2.154       .  S
C1010      O1023   1.236       .  S
C1010      O1047   1.270       .  A
C1010      H1049   1.081       .  S
Mg1011     O1040   2.158       .  S
Mg1011     O1055   2.278       .  S
Mg1011     O1051   2.261       .  S
Mg1011     O2366   2.298       .  S
O1012      C1033   1.236       .  S
O1012     Mg1054   2.154       .  S
O1012     Mg2381   2.157   1_455  S
O1013      C1044   1.268       .  A
O1013     Mg1037   2.299       .  S
C1014      O1016   1.271       .  A
C1014      O1028   1.279       .  A
C1014      C1285   1.488       .  S
O1015      C1043   1.272       .  A
O1016     Mg1048   2.258       .  S
Mg1017     O1023   2.153       .  S
Mg1017     O1031   2.291       .  S
Mg1017     O1019   2.338       .  S
C1018      O1024   1.270       .  A
C1018      C1297   1.475       .  S
O1019      C1026   1.280       .  A
H1020      C1033   1.079       .  S
C1021      O1035   1.233       .  S
C1021      O1036   1.268   1_455  A
C1021      H1046   1.081       .  S
O1022      C1045   1.269       .  A
O1022     Mg2355   2.296   1_455  S
O1023     Mg1037   2.161       .  S
O1024     Mg1054   2.269       .  S
C1025      O2382   1.269       .  A
C1025      O1030   1.274       .  A
C1025      C1333   1.471       .  S
C1026      O1053   1.273       .  A
C1026      C1276   1.489       .  S
Mg1027     O1034   2.149       .  S
Mg1027     O1035   2.163       .  S
Mg1027     O1028   2.332       .  S
Mg1027     O1056   2.282       .  S
O1029      C1033   1.272       .  A
O1030     Mg1037   2.300       .  S
O1032      C1052   1.274       .  A
O1032     Mg1048   2.303       .  S
O1034      C1045   1.235       .  S
O1034     Mg1048   2.159       .  S
O1036     Mg1048   2.299   1_655  S
Mg1037     O2356   2.154       .  S
Mg1037     O1053   2.267       .  S
O1038      C2369   1.268       .  A
O1038     Mg1054   2.258       .  S
H1039      C1044   1.081       .  S
O1040      C1043   1.237       .  S
O1040     Mg2392   2.152       .  S
H1041      C1043   1.079       .  S
H1042      C1045   1.081       .  S
O1047     Mg2398   2.297       .  S
Mg1048     O2384   2.151   1_455  S
C1050      O1055   1.271   1_545  A
C1050      C1309   1.478       .  S
O1051      C2396   1.269       .  A
C1052      O2395   1.269   1_455  A
C1052      C1324   1.473   1_455  S
Mg1054     O2391   2.301   1_455  S
O1057      C1092   1.235       .  S
O1057     Mg1059   2.165   1_655  S
O1057     Mg2409   2.165       .  S
C1058      O1095   1.271       .  A
C1058      H1097   1.080       .  S
Mg1059     O1103   2.309       .  S
Mg1059     O1099   2.288       .  S
Mg1059     O1070   2.302       .  S
O1060      C2425   1.233       .  S
O1060     Mg1085   2.135       .  S
O1061      C2436   1.270       .  A
O1061     Mg1085   2.299       .  S
C1062      O1064   1.271       .  A
C1062      O1076   1.275       .  A
C1062      C1252   1.499       .  S
O1063     Mg1065   2.298       .  S
O1064     Mg1096   2.244       .  S
Mg1065     O2401   2.169       .  S
Mg1065     O1071   2.163       .  S
Mg1065     O1079   2.269       .  S
Mg1065     O1067   2.317       .  S
C1066      O1104   1.275       .  A
C1066      O2416   1.275   1_455  A
C1066      C1336   1.491       .  S
O1067      C1074   1.274       .  A
H1068      C1081   1.081       .  S
C1069      O1083   1.236       .  S
C1069      O2428   1.270       .  A
C1069      H1094   1.081       .  S
O1070      C1093   1.270       .  A
O1071     Mg1085   2.161       .  S
O1072      C2410   1.276       .  A
O1072     Mg1102   2.314       .  S
C1073      O1086   1.273       .  A
C1073      C1225   1.498       .  S
C1074      O1101   1.269       .  A
C1074      C1264   1.494       .  S
Mg1075     O1082   2.153       .  S
Mg1075     O2427   2.168       .  S
Mg1075     O1076   2.321       .  S
Mg1075     O1077   2.297   1_556  S
Mg1075     O1104   2.267       .  S
O1078     Mg1085   2.303       .  S
O1079      C1098   1.275       .  A
O1080     Mg1096   2.296       .  S
C1081      O2404   1.234       .  S
O1082     Mg1096   2.157       .  S
O1083     Mg2419   2.168       .  S
O1083     Mg1102   2.156       .  S
O1084      C2413   1.269   1_455  A
O1084     Mg1096   2.295       .  S
Mg1085     O1101   2.233       .  S
O1086     Mg1102   2.279       .  S
H1087      C1092   1.081   1_455  S
O1088      C2435   1.234       .  S
O1088     Mg1096   2.146       .  S
H1089      C1091   1.081       .  S
H1090      C1093   1.080       .  S
C1091      O2432   1.233       .  S
C1092      O2405   1.270       .  A
O1095     Mg1102   2.309       .  S
C1098      O2447   1.275       .  A
C1098      C1321   1.486       .  S
O1099      C1100   1.274       .  A
C1100      C1240   1.497       .  S
O1103      C2442   1.275   1_455  A
O1105      C1140   1.235       .  S
O1105     Mg1107   2.143       .  S
O1105     Mg1113   2.148       .  S
C1106      O1119   1.235       .  S
C1106      O1143   1.269       .  A
C1106      H1145   1.081       .  S
Mg1107     O1136   2.170       .  S
Mg1107     O1151   2.317       .  S
Mg1107     O1147   2.245       .  S
Mg1107     O1118   2.296       .  S
O1108      C1129   1.235       .  S
O1108     Mg1150   2.162       .  S
O1108     Mg1133   2.154       .  S
O1109      C1140   1.270       .  A
O1109     Mg1133   2.302       .  S
C1110      O1112   1.275       .  A
C1110      O1124   1.273       .  A
C1110      C1201   1.480       .  S
O1111      C1139   1.271       .  A
O1111     Mg1113   2.304       .  S
O1112     Mg1144   2.283       .  S
Mg1113     O1119   2.155       .  S
Mg1113     O1127   2.288       .  S
Mg1113     O1115   2.307       .  S
C1114      O1152   1.275       .  A
C1114      O1120   1.271       .  A
C1114      C1288   1.498       .  S
O1115      C1122   1.277       .  A
H1116      C1129   1.081       .  S
C1117      O1131   1.234       .  S
C1117      O1132   1.268       .  A
C1117      H1142   1.080       .  S
O1118      C1141   1.269       .  A
O1119     Mg1133   2.165       .  S
O1120     Mg1150   2.293       .  S
C1121      O1134   1.268       .  A
C1121      O1126   1.279       .  A
C1121      C1249   1.482       .  S
C1122      O1149   1.275       .  A
C1122      C1213   1.490       .  S
Mg1123     O1130   2.157       .  S
Mg1123     O1131   2.152       .  S
Mg1123     O1124   2.289       .  S
Mg1123     O1125   2.298       .  S
Mg1123     O1152   2.292       .  S
O1125      C1129   1.270       .  A
O1126     Mg1133   2.335       .  S
O1127      C1146   1.274       .  A
O1128      C1148   1.275       .  A
O1128     Mg1144   2.308       .  S
O1130      C1141   1.235       .  S
O1130     Mg1144   2.172       .  S
O1131     Mg1150   2.133       .  S
O1132     Mg1144   2.295       .  S
Mg1133     O1149   2.274       .  S
O1134     Mg1150   2.228       .  S
H1135      C1140   1.081       .  S
O1136      C1139   1.236       .  S
O1136     Mg1144   2.164       .  S
H1137      C1139   1.081       .  S
H1138      C1141   1.081       .  S
O1143     Mg1150   2.294       .  S
C1146      O1151   1.276       .  A
C1146      C1273   1.496       .  S
O1147      C1148   1.270       .  A
C1148      C1261   1.472       .  S
O1153      C1188   1.235       .  S
O1153     Mg1155   2.157       .  S
C1154      O1191   1.270       .  A
C1154      H1193   1.081       .  S
Mg1155     O1199   2.318       .  S
Mg1155     O1195   2.285       .  S
Mg1155     O1166   2.298       .  S
O1156     Mg1181   2.149       .  S
O1157     Mg1181   2.304       .  S
C1158      O1160   1.272       .  A
C1158      O1172   1.272       .  A
C1158      C1204   1.495       .  S
O1159     Mg1161   2.300       .  S
O1160     Mg1192   2.264       .  S
Mg1161     O1167   2.150       .  S
Mg1161     O1175   2.240       .  S
Mg1161     O1163   2.302       .  S
C1162      O1200   1.273   1_545  A
C1162      C1312   1.498       .  S
O1163      C1170   1.274       .  A
H1164      C1177   1.081   1_545  S
C1165      O1179   1.236       .  S
C1165      H1190   1.081       .  S
O1166      C1189   1.269   1_556  A
O1167     Mg1181   2.155       .  S
O1168     Mg1198   2.332       .  S
C1169      O1182   1.278       .  A
C1169      C1228   1.492       .  S
C1170      O1197   1.270       .  A
C1170      C1216   1.496       .  S
Mg1171     O1178   2.151       .  S
Mg1171     O1172   2.299       .  S
Mg1171     O1173   2.295       .  S
Mg1171     O1200   2.254       .  S
O1174     Mg1181   2.291       .  S
O1175      C1194   1.270       .  A
O1176     Mg1192   2.300       .  S
O1178     Mg1192   2.163       .  S
O1179     Mg1198   2.162       .  S
O1180     Mg1192   2.296       .  S
Mg1181     O1197   2.267       .  S
O1182     Mg1198   2.306       .  S
H1183      C1188   1.081       .  S
O1184     Mg1192   2.145       .  S
H1185      C1187   1.082       .  S
H1186      C1189   1.080       .  S
O1191     Mg1198   2.303       .  S
C1194      C1300   1.486       .  S
O1195      C1196   1.275       .  A
C1196      C1237   1.490   1_556  S
C1201      C1202   1.401       .  A
C1201      C1206   1.413       .  A
C1202      H1211   1.084       .  S
C1202      C1203   1.405       .  A
C1203      C1204   1.422       .  A
C1203      S1207   1.802       .  S
C1204      C1205   1.407       .  A
C1205      H1212   1.084       .  S
C1205      C1206   1.396       .  A
C1206      S1208   1.802       .  S
S1207      H1210   1.408       .  S
S1208      H1209   1.407       .  S
C1213      C1214   1.407       .  A
C1213      C1218   1.413       .  A
C1214      H1223   1.082       .  S
C1214      C1215   1.405       .  A
C1215      C1216   1.418       .  A
C1215      S1219   1.810       .  S
C1216      C1217   1.410       .  A
C1217      H1224   1.083       .  S
C1217      C1218   1.400       .  A
C1218      S1220   1.804       .  S
S1219      H1222   1.407       .  S
S1220      H1221   1.407       .  S
C1225      C1230   1.417       .  A
C1226      H1235   1.084       .  S
C1226      C1227   1.402       .  A
C1227      C1228   1.411       .  A
C1227      S1231   1.802       .  S
C1229      H1236   1.083       .  S
C1229      C1230   1.407       .  A
C1230      S1232   1.810       .  S
S1231      H1234   1.407       .  S
S1232      H1233   1.407       .  S
C1237      C1242   1.413   1_554  A
C1238      H1247   1.084       .  S
C1238      C1239   1.401       .  A
C1239      C1240   1.417       .  A
C1239      S1243   1.802       .  S
C1241      H1248   1.083       .  S
C1241      C1242   1.402       .  A
C1242      S1244   1.803       .  S
S1243      H1246   1.407       .  S
S1244      H1245   1.407       .  S
C1249      C1250   1.404       .  A
C1249      C1254   1.411       .  A
C1250      H1259   1.083       .  S
C1250      C1251   1.409       .  A
C1251      C1252   1.423       .  A
C1251      S1255   1.809       .  S
C1252      C1253   1.410       .  A
C1253      H1260   1.083       .  S
C1253      C1254   1.395       .  A
C1254      S1256   1.805       .  S
S1255      H1258   1.407       .  S
S1256      H1257   1.407       .  S
C1261      C1262   1.402       .  A
C1261      C1266   1.407       .  A
C1262      H1271   1.085       .  S
C1262      C1263   1.402       .  A
C1263      C1264   1.421       .  A
C1263      S1267   1.801       .  S
C1264      C1265   1.412       .  A
C1265      H1272   1.084       .  S
C1265      C1266   1.396       .  A
C1266      S1268   1.805       .  S
S1267      H1270   1.407       .  S
S1268      H1269   1.407       .  S
C1273      C1274   1.410       .  A
C1273      C1278   1.416       .  A
C1274      H1283   1.084       .  S
C1274      C1275   1.405       .  A
C1275      C1276   1.412       .  A
C1275      S1279   1.803       .  S
C1276      C1277   1.407       .  A
C1277      H1284   1.084       .  S
C1277      C1278   1.403       .  A
C1278      S1280   1.803       .  S
S1279      H1282   1.407       .  S
S1280      H1281   1.407       .  S
C1285      C1286   1.401       .  A
C1285      C1290   1.417       .  A
C1286      H1295   1.084       .  S
C1286      C1287   1.404       .  A
C1287      C1288   1.425       .  A
C1287      S1291   1.802       .  S
C1288      C1289   1.405       .  A
C1289      H1296   1.084       .  S
C1289      C1290   1.402       .  A
C1290      S1292   1.801       .  S
S1291      H1294   1.408       .  S
S1292      H1293   1.407       .  S
C1297      C1302   1.412       .  A
C1298      H1307   1.084       .  S
C1298      C1299   1.400       .  A
C1299      S1303   1.802       .  S
C1300      C1301   1.407       .  A
C1301      H1308   1.084       .  S
C1301      C1302   1.397       .  A
C1302      S1304   1.805       .  S
S1303      H1306   1.407       .  S
S1304      H1305   1.407       .  S
C1309      C1314   1.412   1_545  A
C1310      H1319   1.084       .  S
C1310      C1311   1.402       .  A
C1311      S1315   1.801       .  S
C1312      C1313   1.411   1_545  A
C1313      H1320   1.083       .  S
C1313      C1314   1.401       .  A
C1314      S1316   1.806       .  S
S1315      H1318   1.408       .  S
S1316      H1317   1.407       .  S
C1321      C1322   1.405       .  A
C1321      C2670   1.419       .  A
C1322      H1331   1.083       .  S
C1322      C1323   1.395       .  A
C1323      C2668   1.411       .  A
C1323      S1327   1.807       .  S
C1324      C2667   1.411       .  A
C1324      C1325   1.402   1_655  A
C1325      H1332   1.083       .  S
C1325      C1326   1.407       .  A
C1326      C2665   1.419   1_455  A
C1326      S1328   1.802       .  S
S1327      H1330   1.406       .  S
S1328      H1329   1.407       .  S
C1333      C1334   1.403       .  A
C1333      C2682   1.411       .  A
C1334      H1343   1.083       .  S
C1334      C1335   1.407       .  A
C1335      C2680   1.417       .  A
C1335      S1339   1.802       .  S
C1336      C2679   1.421   1_455  A
C1336      C1337   1.406       .  A
C1337      H1344   1.083       .  S
C1337      C1338   1.396       .  A
C1338      C2677   1.411       .  A
C1338      S1340   1.806       .  S
S1339      H1342   1.407       .  S
S1340      H1341   1.404       .  S
O1345      C1380   1.233       .  S
O1345     Mg2019   2.152   1_545  S
O1345     Mg1353   2.155       .  S
C1346      O1359   1.236       .  S
C1346      O1383   1.270       .  A
C1346      H1385   1.081       .  S
Mg1347     O2017   2.155       .  S
Mg1347     O1376   2.160       .  S
Mg1347     O1391   2.273       .  S
Mg1347     O1387   2.263       .  S
O1348      C1369   1.236       .  S
O1348     Mg1390   2.162       .  S
O1349      C1380   1.268   1_455  A
O1349     Mg1373   2.299   1_455  S
C1350      O1352   1.270       .  A
C1350      O1364   1.279       .  A
C1350      C1621   1.488       .  S
O1351      C1379   1.272       .  A
O1351     Mg2025   2.309       .  S
O1352     Mg1384   2.255       .  S
Mg1353     O1359   2.151       .  S
Mg1353     O2023   2.311   1_545  S
Mg1353     O1367   2.289       .  S
Mg1353     O1355   2.336       .  S
C1354      O2064   1.274       .  A
C1354      O1360   1.271   1_565  A
C1354      C1633   1.474       .  S
O1355      C1362   1.280       .  A
H1356      C1369   1.079       .  S
C1357      O1371   1.233       .  S
C1357      O1372   1.268       .  A
C1357      H1382   1.082       .  S
O1358      C1381   1.270       .  A
O1359     Mg1373   2.159       .  S
O1360     Mg1390   2.278       .  S
C1361      O1366   1.274   1_455  A
C1361      C1669   1.474       .  S
C1362      O1389   1.273       .  A
C1362      C1612   1.488       .  S
Mg1363     O1370   2.149       .  S
Mg1363     O1371   2.161       .  S
Mg1363     O1364   2.332       .  S
Mg1363     O2037   2.306       .  S
Mg1363     O1392   2.280       .  S
O1365      C1369   1.271       .  A
O1365     Mg2035   2.305   1_545  S
O1366     Mg1373   2.303       .  S
O1367      C2058   1.274       .  A
O1368      C1388   1.272       .  A
O1368     Mg1384   2.295       .  S
O1370      C1381   1.236       .  S
O1370     Mg1384   2.160       .  S
O1371     Mg2062   2.153       .  S
O1372     Mg1384   2.298       .  S
Mg1373     O1389   2.269       .  S
O1374     Mg1390   2.268       .  S
H1375      C1380   1.081       .  S
O1376      C1379   1.237       .  S
H1377      C1379   1.079       .  S
H1378      C1381   1.081       .  S
C1386      O2039   1.275       .  A
C1386      O1391   1.270       .  A
C1386      C1645   1.476       .  S
C1388      C1660   1.470       .  S
Mg1390     O2043   2.157   1_545  S
O1392      C2026   1.273       .  A
O1393      C1428   1.235       .  S
O1393     Mg1395   2.166       .  S
C1394      O1743   1.236       .  S
C1394      O1431   1.272       .  A
C1394      H1433   1.080       .  S
Mg1395     O1760   2.150   1_554  S
Mg1395     O1439   2.304       .  S
Mg1395     O1435   2.288       .  S
Mg1395     O1406   2.300       .  S
O1396     Mg1774   2.148   1_554  S
O1396     Mg1421   2.142       .  S
O1397     Mg1421   2.299       .  S
C1398      O1400   1.270       .  A
C1398      O1412   1.274       .  A
C1398      C1588   1.497       .  S
O1399      C1763   1.269   1_655  A
O1399     Mg1401   2.301   1_556  S
O1400     Mg1432   2.239       .  S
Mg1401     O1407   2.160       .  S
Mg1401     O1415   2.272       .  S
Mg1401     O1403   2.318       .  S
C1402      O1440   1.274       .  A
C1402      C1672   1.482       .  S
O1403      C1410   1.275       .  A
H1404      C1417   1.081       .  S
C1405      O1419   1.235       .  S
C1405      H1430   1.081       .  S
O1406      C1429   1.269       .  A
O1407      C1730   1.236   1_554  S
O1407     Mg1421   2.164       .  S
O1408     Mg1438   2.321       .  S
C1409      O1422   1.272       .  A
C1409      O1750   1.275       .  A
C1409      C1561   1.497       .  S
C1410      O1437   1.270       .  A
C1410      C1600   1.495       .  S
Mg1411     O1418   2.153       .  S
Mg1411     O1412   2.314       .  S
Mg1411     O1413   2.295       .  S
Mg1411     O1440   2.257       .  S
O1413      C1753   1.268       .  A
O1414      C1745   1.275   1_554  A
O1414     Mg1421   2.304       .  S
O1415      C1434   1.275       .  A
O1416      C1772   1.274       .  A
O1416     Mg1432   2.300       .  S
C1417      O1749   1.268   1_554  A
O1418      C1765   1.235       .  S
O1418     Mg1432   2.156       .  S
O1419     Mg1438   2.152       .  S
O1420     Mg1432   2.297       .  S
Mg1421     O1437   2.241       .  S
O1422     Mg1438   2.277       .  S
H1423      C1428   1.081       .  S
O1424     Mg1731   2.151       .  S
O1424     Mg1432   2.143       .  S
H1425      C1427   1.081       .  S
H1426      C1429   1.080       .  S
C1427      O1735   1.268   1_455  A
C1429      O1754   1.235   1_554  S
O1431     Mg1438   2.311       .  S
C1434      C1657   1.486       .  S
O1435      C1436   1.274       .  A
C1436      O1752   1.274   1_554  A
C1436      C1576   1.498       .  S
Mg1438     O1732   2.144       .  S
O1441      C1476   1.235       .  S
O1441     Mg1443   2.143       .  S
O1441     Mg1449   2.147       .  S
C1442      O1455   1.235       .  S
C1442      O1479   1.269       .  A
C1442      H1481   1.081       .  S
Mg1443     O1472   2.169       .  S
Mg1443     O1487   2.317       .  S
Mg1443     O1483   2.244       .  S
Mg1443     O1454   2.296       .  S
O1444      C1465   1.235       .  S
O1444     Mg1486   2.160       .  S
O1444     Mg1469   2.155       .  S
O1445      C1476   1.270       .  A
O1445     Mg1469   2.302       .  S
C1446      O1448   1.275       .  A
C1446      O1460   1.273       .  A
C1446      C1537   1.482       .  S
O1447      C1475   1.271       .  A
O1447     Mg1449   2.305       .  S
O1448     Mg1480   2.285       .  S
Mg1449     O1455   2.155       .  S
Mg1449     O1463   2.286       .  S
Mg1449     O1451   2.309       .  S
C1450      O1488   1.275       .  A
C1450      O1456   1.271       .  A
C1450      C1624   1.498       .  S
O1451      C1458   1.277       .  A
H1452      C1465   1.081       .  S
C1453      O1467   1.234       .  S
C1453      O1468   1.268       .  A
C1453      H1478   1.080       .  S
O1454      C1477   1.269       .  A
O1455     Mg1469   2.164       .  S
O1456     Mg1486   2.294       .  S
C1457      O1470   1.267       .  A
C1457      O1462   1.279       .  A
C1457      C1585   1.481       .  S
C1458      O1485   1.275       .  A
C1458      C1549   1.490       .  S
Mg1459     O1466   2.156       .  S
Mg1459     O1467   2.154       .  S
Mg1459     O1460   2.291       .  S
Mg1459     O1461   2.298       .  S
Mg1459     O1488   2.292       .  S
O1461      C1465   1.269       .  A
O1462     Mg1469   2.337       .  S
O1463      C1482   1.274       .  A
O1464      C1484   1.275       .  A
O1464     Mg1480   2.309       .  S
O1466      C1477   1.235       .  S
O1466     Mg1480   2.171       .  S
O1467     Mg1486   2.131       .  S
O1468     Mg1480   2.294       .  S
Mg1469     O1485   2.277       .  S
O1470     Mg1486   2.220       .  S
H1471      C1476   1.081       .  S
O1472      C1475   1.237       .  S
O1472     Mg1480   2.166       .  S
H1473      C1475   1.081       .  S
H1474      C1477   1.081       .  S
O1479     Mg1486   2.294       .  S
C1482      O1487   1.276       .  A
C1482      C1609   1.495       .  S
O1483      C1484   1.270       .  A
C1484      C1597   1.473       .  S
O1489      C1524   1.235       .  S
O1489     Mg1491   2.155       .  S
O1489     Mg2169   2.154       .  S
C1490      O1839   1.235       .  S
C1490      O1527   1.270   1_556  A
C1490      H1529   1.081       .  S
Mg1491     O1856   2.158       .  S
Mg1491     O1535   2.325       .  S
Mg1491     O1531   2.286       .  S
Mg1491     O1502   2.301       .  S
O1492      C2185   1.234   1_545  S
O1492     Mg1870   2.164       .  S
O1492     Mg1517   2.153       .  S
O1493      C2196   1.270       .  A
O1493     Mg1517   2.302   1_565  S
C1494      O1496   1.273       .  A
C1494      O1508   1.273       .  A
C1494      C1540   1.498       .  S
O1495      C1859   1.269   1_545  A
O1495     Mg1497   2.299       .  S
O1496     Mg1528   2.269       .  S
Mg1497     O2161   2.154   1_545  S
Mg1497     O1503   2.148       .  S
Mg1497     O1511   2.241       .  S
Mg1497     O1499   2.305       .  S
C1498      O1536   1.272       .  A
C1498      O2176   1.278       .  A
C1498      C1648   1.496       .  S
O1499      C1506   1.274       .  A
H1500      C1513   1.081       .  S
C1501      O1515   1.236       .  S
C1501      O2188   1.270   1_545  A
C1501      H1526   1.081       .  S
O1502      C1525   1.270       .  A
O1503      C1826   1.235       .  S
O1503     Mg1517   2.154       .  S
O1504      C2170   1.277       .  A
O1504     Mg1534   2.328       .  S
C1505      O1518   1.277   1_556  A
C1505      O1846   1.274       .  A
C1505      C1564   1.489       .  S
C1506      O1533   1.270       .  A
C1506      C1552   1.496       .  S
Mg1507     O1514   2.150       .  S
Mg1507     O2187   2.168       .  S
Mg1507     O1508   2.304       .  S
Mg1507     O1509   2.295       .  S
Mg1507     O1536   2.251       .  S
O1509      C1849   1.268   1_554  A
O1510      C1841   1.273       .  A
O1510     Mg1517   2.286       .  S
O1511      C1530   1.271   1_545  A
O1512      C1868   1.275       .  A
O1512     Mg1528   2.301       .  S
C1513      O2164   1.234       .  S
C1513      O1845   1.268       .  A
O1514      C1861   1.235       .  S
O1514     Mg1528   2.163       .  S
O1515     Mg2179   2.169   1_545  S
O1515     Mg1534   2.161       .  S
O1516      C2173   1.270       .  A
O1516     Mg1528   2.298       .  S
Mg1517     O1533   2.268       .  S
O1518     Mg1534   2.297       .  S
H1519      C1524   1.081       .  S
O1520      C2195   1.235       .  S
O1520     Mg1827   2.159   1_554  S
O1520     Mg1528   2.151       .  S
H1521      C1523   1.082       .  S
H1522      C1525   1.080       .  S
C1523      O2192   1.235       .  S
C1523      O1831   1.269   1_564  A
C1524      O2165   1.270       .  A
C1525      O1850   1.235       .  S
O1527     Mg1534   2.301       .  S
C1530      O2207   1.277       .  A
C1530      C1636   1.490       .  S
O1531      C1532   1.275       .  A
C1532      O1848   1.275       .  A
C1532      C1573   1.490       .  S
Mg1534     O1828   2.167   1_554  S
O1535      C2202   1.277       .  A
C1537      C1538   1.402       .  A
C1537      C1542   1.414       .  A
C1538      H1547   1.084       .  S
C1538      C1539   1.405       .  A
C1539      C1540   1.423       .  A
C1539      S1543   1.802       .  S
C1540      C1541   1.408       .  A
C1541      H1548   1.083       .  S
C1541      C1542   1.398       .  A
C1542      S1544   1.802       .  S
S1543      H1546   1.408       .  S
S1544      H1545   1.407       .  S
C1549      C1550   1.407       .  A
C1549      C1554   1.414       .  A
C1550      H1559   1.082       .  S
C1550      C1551   1.406       .  A
C1551      C1552   1.418       .  A
C1551      S1555   1.810       .  S
C1552      C1553   1.410       .  A
C1553      H1560   1.083       .  S
C1553      C1554   1.401       .  A
C1554      S1556   1.804       .  S
S1555      H1558   1.407       .  S
S1556      H1557   1.407       .  S
C1561      C1898   1.411       .  A
C1561      C1566   1.417       .  A
C1562      H1571   1.083       .  S
C1562      C1897   1.412   1_554  A
C1562      C1563   1.402       .  A
C1563      C1564   1.411   1_554  A
C1563      S1567   1.802       .  S
C1564      C1901   1.408       .  A
C1565      H1572   1.083       .  S
C1565      C1900   1.409       .  A
C1565      C1566   1.406       .  A
C1566      S1568   1.810       .  S
S1567      H1570   1.407       .  S
S1568      H1569   1.407       .  S
C1573      C1910   1.408       .  A
C1573      C1578   1.413       .  A
C1574      H1583   1.084       .  S
C1574      C1909   1.408       .  A
C1574      C1575   1.402       .  A
C1575      C1576   1.417       .  A
C1575      S1579   1.802       .  S
C1576      C1913   1.412   1_554  A
C1577      H1584   1.083       .  S
C1577      C1912   1.412       .  A
C1577      C1578   1.403       .  A
C1578      S1580   1.804       .  S
S1579      H1582   1.407       .  S
S1580      H1581   1.407       .  S
C1585      C1586   1.404       .  A
C1585      C1590   1.412       .  A
C1586      H1595   1.083       .  S
C1586      C1587   1.409       .  A
C1587      C1588   1.423       .  A
C1587      S1591   1.810       .  S
C1588      C1589   1.409       .  A
C1589      H1596   1.083       .  S
C1589      C1590   1.393       .  A
C1590      S1592   1.806       .  S
S1591      H1594   1.407       .  S
S1592      H1593   1.407       .  S
C1597      C1598   1.402       .  A
C1597      C1602   1.407       .  A
C1598      H1607   1.085       .  S
C1598      C1599   1.402       .  A
C1599      C1600   1.421       .  A
C1599      S1603   1.801       .  S
C1600      C1601   1.412       .  A
C1601      H1608   1.084       .  S
C1601      C1602   1.396       .  A
C1602      S1604   1.805       .  S
S1603      H1606   1.407       .  S
S1604      H1605   1.407       .  S
C1609      C1610   1.410       .  A
C1609      C1614   1.416       .  A
C1610      H1619   1.084       .  S
C1610      C1611   1.405       .  A
C1611      C1612   1.412       .  A
C1611      S1615   1.803       .  S
C1612      C1613   1.406       .  A
C1613      H1620   1.084       .  S
C1613      C1614   1.403       .  A
C1614      S1616   1.803       .  S
S1615      H1618   1.407       .  S
S1616      H1617   1.407       .  S
C1621      C1622   1.401       .  A
C1621      C1626   1.418       .  A
C1622      H1631   1.084       .  S
C1622      C1623   1.403       .  A
C1623      C1624   1.425       .  A
C1623      S1627   1.801       .  S
C1624      C1625   1.405       .  A
C1625      H1632   1.084       .  S
C1625      C1626   1.402       .  A
C1626      S1628   1.801       .  S
S1627      H1630   1.408       .  S
S1628      H1629   1.407       .  S
C1633      C2306   1.402       .  A
C1633      C1638   1.410   1_565  A
C1634      H1643   1.084       .  S
C1634      C2305   1.402       .  A
C1634      C1635   1.401       .  A
C1635      C2308   1.420       .  A
C1635      S1639   1.802       .  S
C1636      C2307   1.420       .  A
C1636      C1637   1.409   1_565  A
C1637      H1644   1.084       .  S
C1637      C1638   1.398       .  A
C1638      S1640   1.805       .  S
S1639      H1642   1.407       .  S
S1640      H1641   1.407       .  S
C1645      C2318   1.401       .  A
C1645      C1650   1.411       .  A
C1646      H1655   1.084       .  S
C1646      C2317   1.401       .  A
C1646      C1647   1.402       .  A
C1647      C2320   1.421       .  A
C1647      S1651   1.801       .  S
C1648      C2319   1.422       .  A
C1648      C1649   1.410       .  A
C1649      H1656   1.083       .  S
C1649      C1650   1.400       .  A
C1650      S1652   1.806       .  S
S1651      H1654   1.408       .  S
S1652      H1653   1.407       .  S
C1657      C1658   1.404       .  A
C1658      H1667   1.083       .  S
C1658      C1659   1.395       .  A
C1659      S1663   1.807       .  S
C1660      C1661   1.402       .  A
C1661      H1668   1.083       .  S
C1661      C1662   1.405       .  A
C1662      S1664   1.802       .  S
S1663      H1666   1.406       .  S
S1664      H1665   1.407       .  S
C1669      C1670   1.403   1_455  A
C1670      H1679   1.083       .  S
C1670      C1671   1.408       .  A
C1671      S1675   1.802       .  S
C1672      C1673   1.403       .  A
C1673      H1680   1.084       .  S
C1673      C1674   1.393       .  A
C1674      S1676   1.807       .  S
S1675      H1678   1.407       .  S
S1676      H1677   1.406       .  S
O1681      C1716   1.233       .  S
O1681     Mg2355   2.154   1_545  S
O1681     Mg1689   2.158       .  S
C1682      O1695   1.235       .  S
C1682      O1719   1.269       .  A
C1682      H1721   1.081       .  S
Mg1683     O2353   2.155       .  S
Mg1683     O1712   2.161       .  S
Mg1683     O1727   2.274       .  S
Mg1683     O1723   2.262       .  S
O1684      C1705   1.236       .  S
O1684     Mg1726   2.163       .  S
O1685      C1716   1.268   1_455  A
O1685     Mg1709   2.299   1_455  S
C1686      O1688   1.270       .  A
C1686      O1700   1.279       .  A
C1686      C1957   1.487       .  S
O1687      C1715   1.271       .  A
O1687     Mg2361   2.308       .  S
O1688     Mg1720   2.254       .  S
Mg1689     O1695   2.152       .  S
Mg1689     O2359   2.309   1_545  S
Mg1689     O1703   2.289       .  S
Mg1689     O1691   2.336       .  S
C1690      O2400   1.273       .  A
C1690      O1696   1.271   1_565  A
C1690      C1969   1.473       .  S
O1691      C1698   1.280       .  A
H1692      C1705   1.079       .  S
C1693      O1707   1.233       .  S
C1693      O1708   1.267       .  A
C1693      H1718   1.082       .  S
O1694      C1717   1.270       .  A
O1695     Mg1709   2.162       .  S
O1696     Mg1726   2.277       .  S
C1697      O1702   1.274   1_455  A
C1697      C2005   1.473       .  S
C1698      O1725   1.273       .  A
C1698      C1948   1.488       .  S
Mg1699     O1706   2.149       .  S
Mg1699     O1707   2.160       .  S
Mg1699     O1700   2.332       .  S
Mg1699     O2373   2.306       .  S
Mg1699     O1728   2.279       .  S
O1701      C1705   1.271       .  A
O1701     Mg2371   2.307   1_545  S
O1702     Mg1709   2.304       .  S
O1703      C2394   1.274       .  A
O1704      C1724   1.272       .  A
O1704     Mg1720   2.296       .  S
O1706      C1717   1.236       .  S
O1706     Mg1720   2.160       .  S
O1707     Mg2398   2.152       .  S
O1708     Mg1720   2.297       .  S
Mg1709     O1725   2.267       .  S
O1710     Mg1726   2.264       .  S
H1711      C1716   1.081       .  S
O1712      C1715   1.236       .  S
H1713      C1715   1.079       .  S
H1714      C1717   1.081       .  S
C1722      O2375   1.275       .  A
C1722      O1727   1.271       .  A
C1722      C1981   1.477       .  S
C1724      C1996   1.471       .  S
Mg1726     O2379   2.154   1_545  S
O1728      C2362   1.273       .  A
O1729      C1764   1.236       .  S
O1729     Mg1731   2.167       .  S
C1730      O1767   1.271       .  A
C1730      H1769   1.080       .  S
Mg1731     O1775   2.307       .  S
Mg1731     O1771   2.290       .  S
Mg1731     O1742   2.300       .  S
O1732     Mg1757   2.139       .  S
O1733     Mg1757   2.300       .  S
C1734      O1736   1.270       .  A
C1734      O1748   1.274       .  A
C1734      C1924   1.497       .  S
O1735     Mg1737   2.299       .  S
O1736     Mg1768   2.240       .  S
Mg1737     O1743   2.165       .  S
Mg1737     O1751   2.273       .  S
Mg1737     O1739   2.318       .  S
C1738      O1776   1.273       .  A
C1738      C2008   1.482       .  S
O1739      C1746   1.275       .  A
H1740      C1753   1.081       .  S
C1741      O1755   1.235   1_655  S
C1741      H1766   1.081       .  S
O1742      C1765   1.269       .  A
O1743     Mg1757   2.162       .  S
O1744     Mg1774   2.311       .  S
C1745      O1758   1.271       .  A
C1745      C1897   1.497       .  S
C1746      O1773   1.269       .  A
C1746      C1936   1.495       .  S
Mg1747     O1754   2.152       .  S
Mg1747     O1748   2.313       .  S
Mg1747     O1749   2.295       .  S
Mg1747     O1776   2.256       .  S
O1750     Mg1757   2.306       .  S
O1751      C1770   1.275       .  A
O1752     Mg1768   2.299       .  S
O1754     Mg1768   2.156       .  S
O1755     Mg1774   2.150   1_455  S
O1756     Mg1768   2.297       .  S
Mg1757     O1773   2.239       .  S
O1758     Mg1774   2.270       .  S
H1759      C1764   1.081       .  S
O1760     Mg1768   2.142       .  S
H1761      C1763   1.081       .  S
H1762      C1765   1.080       .  S
O1767     Mg1774   2.306       .  S
C1770      C1993   1.486       .  S
O1771      C1772   1.274       .  A
C1772      C1912   1.499       .  S
O1777      C1812   1.235       .  S
O1777     Mg1779   2.145       .  S
O1777     Mg1785   2.148       .  S
C1778      O1791   1.235       .  S
C1778      O1815   1.269       .  A
C1778      H1817   1.081       .  S
Mg1779     O1808   2.169       .  S
Mg1779     O1823   2.314       .  S
Mg1779     O1819   2.245       .  S
Mg1779     O1790   2.296       .  S
O1780      C1801   1.235       .  S
O1780     Mg1822   2.161       .  S
O1780     Mg1805   2.153       .  S
O1781      C1812   1.270       .  A
O1781     Mg1805   2.303       .  S
C1782      O1784   1.275       .  A
C1782      O1796   1.273       .  A
C1782      C1873   1.481       .  S
O1783      C1811   1.272       .  A
O1783     Mg1785   2.306       .  S
O1784     Mg1816   2.281       .  S
Mg1785     O1791   2.153       .  S
Mg1785     O1799   2.288       .  S
Mg1785     O1787   2.313       .  S
C1786      O1824   1.275       .  A
C1786      O1792   1.270       .  A
C1786      C1960   1.498       .  S
O1787      C1794   1.278       .  A
H1788      C1801   1.081       .  S
C1789      O1803   1.234       .  S
C1789      O1804   1.268       .  A
C1789      H1814   1.080       .  S
O1790      C1813   1.269       .  A
O1791     Mg1805   2.163       .  S
O1792     Mg1822   2.291       .  S
C1793      O1806   1.267       .  A
C1793      O1798   1.279       .  A
C1793      C1921   1.481       .  S
C1794      O1821   1.275       .  A
C1794      C1885   1.491       .  S
Mg1795     O1802   2.157       .  S
Mg1795     O1803   2.154       .  S
Mg1795     O1796   2.290       .  S
Mg1795     O1797   2.297       .  S
Mg1795     O1824   2.292       .  S
O1797      C1801   1.269       .  A
O1798     Mg1805   2.336       .  S
O1799      C1818   1.274       .  A
O1800      C1820   1.275       .  A
O1800     Mg1816   2.308       .  S
O1802      C1813   1.235       .  S
O1802     Mg1816   2.172       .  S
O1803     Mg1822   2.130       .  S
O1804     Mg1816   2.293       .  S
Mg1805     O1821   2.276       .  S
O1806     Mg1822   2.220       .  S
H1807      C1812   1.081       .  S
O1808      C1811   1.237       .  S
O1808     Mg1816   2.165       .  S
H1809      C1811   1.081       .  S
H1810      C1813   1.081       .  S
O1815     Mg1822   2.293       .  S
C1818      O1823   1.276       .  A
C1818      C1945   1.495       .  S
O1819      C1820   1.270       .  A
C1820      C1933   1.472       .  S
O1825      C1860   1.235       .  S
O1825     Mg1827   2.157       .  S
O1825     Mg2505   2.154       .  S
C1826      O1863   1.270       .  A
C1826      H1865   1.081       .  S
Mg1827     O1871   2.326       .  S
Mg1827     O1867   2.288       .  S
Mg1827     O1838   2.300       .  S
O1828      C2521   1.234   1_545  S
O1828     Mg1853   2.152       .  S
O1829      C2532   1.270       .  A
O1829     Mg1853   2.302   1_565  S
C1830      O1832   1.272       .  A
C1830      O1844   1.273       .  A
C1830      C1876   1.498       .  S
O1831     Mg1833   2.298       .  S
O1832     Mg1864   2.266       .  S
Mg1833     O2497   2.154   1_545  S
Mg1833     O1839   2.148       .  S
Mg1833     O1847   2.238       .  S
Mg1833     O1835   2.311       .  S
C1834      O1872   1.272       .  A
C1834      O2512   1.278       .  A
C1834      C1984   1.495       .  S
O1835      C1842   1.275       .  A
H1836      C1849   1.081       .  S
C1837      O1851   1.236       .  S
C1837      O2524   1.270   1_545  A
C1837      H1862   1.081       .  S
O1838      C1861   1.270   1_556  A
O1839     Mg1853   2.153       .  S
O1840      C2506   1.278       .  A
O1840     Mg1870   2.330       .  S
C1841      O1854   1.277       .  A
C1841      C1900   1.491       .  S
C1842      O1869   1.271       .  A
C1842      C1888   1.498       .  S
Mg1843     O1850   2.151       .  S
Mg1843     O2523   2.168       .  S
Mg1843     O1844   2.305       .  S
Mg1843     O1845   2.297       .  S
Mg1843     O1872   2.253       .  S
O1846     Mg1853   2.288       .  S
O1847      C1866   1.271   1_545  A
O1848     Mg1864   2.301       .  S
C1849      O2500   1.234       .  S
O1850     Mg1864   2.163       .  S
O1851     Mg2515   2.168   1_545  S
O1851     Mg1870   2.162       .  S
O1852      C2509   1.270       .  A
O1852     Mg1864   2.299       .  S
Mg1853     O1869   2.269       .  S
O1854     Mg1870   2.303       .  S
H1855      C1860   1.081       .  S
O1856      C2531   1.235       .  S
O1856     Mg1864   2.150       .  S
H1857      C1859   1.082       .  S
H1858      C1861   1.080       .  S
C1859      O2528   1.235       .  S
C1860      O2501   1.270       .  A
O1863     Mg1870   2.300       .  S
C1866      O2543   1.278       .  A
C1866      C1972   1.489       .  S
O1867      C1868   1.275   1_556  A
C1868      C1909   1.490       .  S
O1871      C2538   1.277       .  A
C1873      C1874   1.401       .  A
C1873      C1878   1.414       .  A
C1874      H1883   1.084       .  S
C1874      C1875   1.404       .  A
C1875      C1876   1.423       .  A
C1875      S1879   1.802       .  S
C1876      C1877   1.408       .  A
C1877      H1884   1.083       .  S
C1877      C1878   1.398       .  A
C1878      S1880   1.803       .  S
S1879      H1882   1.408       .  S
S1880      H1881   1.407       .  S
C1885      C1886   1.407       .  A
C1885      C1890   1.414       .  A
C1886      H1895   1.082       .  S
C1886      C1887   1.406       .  A
C1887      C1888   1.419       .  A
C1887      S1891   1.810       .  S
C1888      C1889   1.410       .  A
C1889      H1896   1.083       .  S
C1889      C1890   1.402       .  A
C1890      S1892   1.804       .  S
S1891      H1894   1.407       .  S
S1892      H1893   1.407       .  S
C1897      C1902   1.419       .  A
C1898      H1907   1.084       .  S
C1898      C1899   1.402       .  A
C1899      C1900   1.411       .  A
C1899      S1903   1.802       .  S
C1901      H1908   1.083       .  S
C1901      C1902   1.405       .  A
C1902      S1904   1.811       .  S
S1903      H1906   1.408       .  S
S1904      H1905   1.407       .  S
C1909      C1914   1.413   1_554  A
C1910      H1919   1.084       .  S
C1910      C1911   1.402       .  A
C1911      C1912   1.417       .  A
C1911      S1915   1.802       .  S
C1913      H1920   1.083       .  S
C1913      C1914   1.403       .  A
C1914      S1916   1.803       .  S
S1915      H1918   1.407       .  S
S1916      H1917   1.407       .  S
C1921      C1922   1.404       .  A
C1921      C1926   1.412       .  A
C1922      H1931   1.083       .  S
C1922      C1923   1.409       .  A
C1923      C1924   1.423       .  A
C1923      S1927   1.810       .  S
C1924      C1925   1.409       .  A
C1925      H1932   1.083       .  S
C1925      C1926   1.393       .  A
C1926      S1928   1.806       .  S
S1927      H1930   1.407       .  S
S1928      H1929   1.407       .  S
C1933      C1934   1.402       .  A
C1933      C1938   1.407       .  A
C1934      H1943   1.085       .  S
C1934      C1935   1.403       .  A
C1935      C1936   1.421       .  A
C1935      S1939   1.801       .  S
C1936      C1937   1.412       .  A
C1937      H1944   1.084       .  S
C1937      C1938   1.396       .  A
C1938      S1940   1.805       .  S
S1939      H1942   1.407       .  S
S1940      H1941   1.407       .  S
C1945      C1946   1.410       .  A
C1945      C1950   1.416       .  A
C1946      H1955   1.084       .  S
C1946      C1947   1.404       .  A
C1947      C1948   1.412       .  A
C1947      S1951   1.803       .  S
C1948      C1949   1.407       .  A
C1949      H1956   1.084       .  S
C1949      C1950   1.403       .  A
C1950      S1952   1.803       .  S
S1951      H1954   1.407       .  S
S1952      H1953   1.407       .  S
C1957      C1958   1.401       .  A
C1957      C1962   1.417       .  A
C1958      H1967   1.084       .  S
C1958      C1959   1.403       .  A
C1959      C1960   1.425       .  A
C1959      S1963   1.801       .  S
C1960      C1961   1.405       .  A
C1961      H1968   1.084       .  S
C1961      C1962   1.401       .  A
C1962      S1964   1.801       .  S
S1963      H1966   1.408       .  S
S1964      H1965   1.407       .  S
C1969      C2642   1.402       .  A
C1969      C1974   1.410   1_565  A
C1970      H1979   1.084       .  S
C1970      C2641   1.402       .  A
C1970      C1971   1.401       .  A
C1971      C2644   1.420       .  A
C1971      S1975   1.802       .  S
C1972      C2643   1.420       .  A
C1972      C1973   1.409   1_565  A
C1973      H1980   1.084       .  S
C1973      C1974   1.397       .  A
C1974      S1976   1.805       .  S
S1975      H1978   1.407       .  S
S1976      H1977   1.407       .  S
C1981      C2654   1.401       .  A
C1981      C1986   1.412       .  A
C1982      H1991   1.084       .  S
C1982      C2653   1.401       .  A
C1982      C1983   1.402       .  A
C1983      C2656   1.421       .  A
C1983      S1987   1.800       .  S
C1984      C2655   1.421       .  A
C1984      C1985   1.410       .  A
C1985      H1992   1.084       .  S
C1985      C1986   1.400       .  A
C1986      S1988   1.806       .  S
S1987      H1990   1.408       .  S
S1988      H1989   1.407       .  S
C1993      C1994   1.404       .  A
C1994      H2003   1.083       .  S
C1994      C1995   1.395       .  A
C1995      S1999   1.807       .  S
C1996      C1997   1.402       .  A
C1997      H2004   1.083       .  S
C1997      C1998   1.406       .  A
C1998      S2000   1.802       .  S
S1999      H2002   1.406       .  S
S2000      H2001   1.407       .  S
C2005      C2006   1.402   1_455  A
C2006      H2015   1.083       .  S
C2006      C2007   1.407       .  A
C2007      S2011   1.802       .  S
C2008      C2009   1.403       .  A
C2009      H2016   1.084       .  S
C2009      C2010   1.394       .  A
C2010      S2012   1.807       .  S
S2011      H2014   1.407       .  S
S2012      H2013   1.406       .  S
O2017      C2052   1.233       .  S
O2017     Mg2025   2.157       .  S
C2018      O2031   1.235       .  S
C2018      O2055   1.269       .  A
C2018      H2057   1.081       .  S
Mg2019     O2048   2.156       .  S
Mg2019     O2063   2.273       .  S
Mg2019     O2059   2.257       .  S
O2020      C2041   1.236       .  S
O2020     Mg2062   2.163       .  S
O2021      C2052   1.268   1_455  A
O2021     Mg2045   2.300   1_455  S
C2022      O2024   1.270       .  A
C2022      O2036   1.279       .  A
C2022      C2293   1.489       .  S
O2023      C2051   1.272       .  A
O2024     Mg2056   2.260       .  S
Mg2025     O2031   2.151       .  S
Mg2025     O2039   2.292       .  S
Mg2025     O2027   2.338       .  S
C2026      O2032   1.271       .  A
C2026      C2305   1.474       .  S
O2027      C2034   1.280       .  A
H2028      C2041   1.079       .  S
C2029      O2043   1.234       .  S
C2029      O2044   1.269       .  A
C2029      H2054   1.081       .  S
O2030      C2053   1.271       .  A
O2031     Mg2045   2.162       .  S
O2032     Mg2062   2.277       .  S
C2033      O2038   1.274   1_455  A
C2033      C2341   1.472       .  S
C2034      O2061   1.274       .  A
C2034      C2284   1.489       .  S
Mg2035     O2042   2.153       .  S
Mg2035     O2043   2.163       .  S
Mg2035     O2036   2.333       .  S
Mg2035     O2064   2.284       .  S
O2037      C2041   1.271       .  A
O2038     Mg2045   2.304       .  S
O2040      C2060   1.273       .  A
O2040     Mg2056   2.310       .  S
O2042      C2053   1.236       .  S
O2042     Mg2056   2.154       .  S
O2044     Mg2056   2.302       .  S
Mg2045     O2061   2.271       .  S
O2046     Mg2062   2.263       .  S
H2047      C2052   1.081       .  S
O2048      C2051   1.237       .  S
H2049      C2051   1.079       .  S
H2050      C2053   1.081       .  S
C2058      O2063   1.270   1_545  A
C2058      C2317   1.474       .  S
C2060      C2332   1.472       .  S
O2065      C2100   1.235       .  S
O2065     Mg2067   2.166       .  S
C2066      O2415   1.236       .  S
C2066      O2103   1.271       .  A
C2066      H2105   1.080       .  S
Mg2067     O2432   2.151   1_554  S
Mg2067     O2111   2.296       .  S
Mg2067     O2107   2.302       .  S
Mg2067     O2078   2.299       .  S
O2068     Mg2446   2.151   1_554  S
O2068     Mg2093   2.146       .  S
O2069     Mg2093   2.298       .  S
C2070      O2072   1.270       .  A
C2070      O2084   1.273       .  A
C2070      C2260   1.496       .  S
O2071      C2435   1.268   1_655  A
O2071     Mg2073   2.298   1_556  S
O2072     Mg2104   2.240       .  S
Mg2073     O2079   2.159       .  S
Mg2073     O2087   2.275       .  S
Mg2073     O2075   2.320       .  S
C2074      O2112   1.273       .  A
C2074      C2344   1.482       .  S
O2075      C2082   1.275       .  A
H2076      C2089   1.081       .  S
C2077      O2091   1.235   1_655  S
C2077      H2102   1.081       .  S
O2078      C2101   1.269       .  A
O2079      C2402   1.235   1_554  S
O2079     Mg2093   2.163       .  S
O2080     Mg2110   2.309       .  S
C2081      O2094   1.272       .  A
C2081      O2422   1.275       .  A
C2081      C2233   1.498       .  S
C2082      O2109   1.271       .  A
C2082      C2272   1.496       .  S
Mg2083     O2090   2.154       .  S
Mg2083     O2084   2.312       .  S
Mg2083     O2085   2.295       .  S
Mg2083     O2112   2.258       .  S
O2085      C2425   1.268       .  A
O2086      C2417   1.275   1_554  A
O2086     Mg2093   2.305       .  S
O2087      C2106   1.276       .  A
O2088      C2444   1.274       .  A
O2088     Mg2104   2.298       .  S
C2089      O2421   1.268   1_554  A
O2090      C2437   1.235       .  S
O2090     Mg2104   2.156       .  S
O2091     Mg2110   2.151   1_455  S
O2092     Mg2104   2.298       .  S
Mg2093     O2109   2.244       .  S
O2094     Mg2110   2.272       .  S
H2095      C2100   1.081       .  S
O2096     Mg2403   2.150       .  S
O2096     Mg2104   2.142       .  S
H2097      C2099   1.081       .  S
H2098      C2101   1.080       .  S
C2099      O2407   1.269   1_455  A
C2101      O2426   1.235   1_554  S
O2103     Mg2110   2.306       .  S
C2106      C2329   1.492       .  S
O2107      C2108   1.276       .  A
C2108      O2424   1.273   1_554  A
C2108      C2248   1.497       .  S
Mg2110     O2404   2.148       .  S
O2113      C2148   1.235       .  S
O2113     Mg2115   2.146       .  S
O2113     Mg2121   2.148       .  S
C2114      O2127   1.235       .  S
C2114      O2151   1.269       .  A
C2114      H2153   1.081       .  S
Mg2115     O2144   2.170       .  S
Mg2115     O2159   2.314       .  S
Mg2115     O2155   2.247       .  S
Mg2115     O2126   2.295       .  S
O2116      C2137   1.235       .  S
O2116     Mg2158   2.161       .  S
O2116     Mg2141   2.156       .  S
O2117      C2148   1.270       .  A
O2117     Mg2141   2.303       .  S
C2118      O2120   1.275       .  A
C2118      O2132   1.273       .  A
C2118      C2209   1.480       .  S
O2119      C2147   1.272       .  A
O2119     Mg2121   2.305       .  S
O2120     Mg2152   2.283       .  S
Mg2121     O2127   2.155       .  S
Mg2121     O2135   2.290       .  S
Mg2121     O2123   2.312       .  S
C2122      O2160   1.275       .  A
C2122      O2128   1.271       .  A
C2122      C2296   1.500       .  S
O2123      C2130   1.278       .  A
H2124      C2137   1.081       .  S
C2125      O2139   1.234       .  S
C2125      O2140   1.268       .  A
C2125      H2150   1.080       .  S
O2126      C2149   1.269       .  A
O2127     Mg2141   2.163       .  S
O2128     Mg2158   2.298       .  S
C2129      O2142   1.267       .  A
C2129      O2134   1.279       .  A
C2129      C2257   1.481       .  S
C2130      O2157   1.275       .  A
C2130      C2221   1.492       .  S
Mg2131     O2138   2.155       .  S
Mg2131     O2139   2.154       .  S
Mg2131     O2132   2.286       .  S
Mg2131     O2133   2.297       .  S
Mg2131     O2160   2.291       .  S
O2133      C2137   1.269       .  A
O2134     Mg2141   2.338       .  S
O2135      C2154   1.275       .  A
O2136      C2156   1.275       .  A
O2136     Mg2152   2.311       .  S
O2138      C2149   1.235       .  S
O2138     Mg2152   2.171       .  S
O2139     Mg2158   2.130       .  S
O2140     Mg2152   2.294       .  S
Mg2141     O2157   2.281       .  S
O2142     Mg2158   2.219       .  S
H2143      C2148   1.081       .  S
O2144      C2147   1.237       .  S
O2144     Mg2152   2.165       .  S
H2145      C2147   1.081       .  S
H2146      C2149   1.081       .  S
O2151     Mg2158   2.295       .  S
C2154      O2159   1.276       .  A
C2154      C2281   1.495       .  S
O2155      C2156   1.271       .  A
C2156      C2269   1.474       .  S
O2161      C2196   1.235       .  S
O2161     Mg2163   2.155       .  S
C2162      O2511   1.235       .  S
C2162      O2199   1.270   1_556  A
C2162      H2201   1.081       .  S
Mg2163     O2528   2.157       .  S
Mg2163     O2207   2.326       .  S
Mg2163     O2203   2.285       .  S
Mg2163     O2174   2.301       .  S
O2164     Mg2542   2.166       .  S
O2164     Mg2189   2.154       .  S
O2165     Mg2189   2.301       .  S
C2166      O2168   1.272       .  A
C2166      O2180   1.272       .  A
C2166      C2212   1.496       .  S
O2167      C2531   1.269       .  A
O2167     Mg2169   2.300       .  S
O2168     Mg2200   2.261       .  S
Mg2169     O2175   2.146       .  S
Mg2169     O2183   2.242       .  S
Mg2169     O2171   2.308       .  S
C2170      O2208   1.271   1_545  A
C2170      C2320   1.495       .  S
O2171      C2178   1.275       .  A
H2172      C2185   1.081       .  S
C2173      O2187   1.236       .  S
C2173      H2198   1.081       .  S
O2174      C2197   1.270       .  A
O2175      C2498   1.235       .  S
O2175     Mg2189   2.155       .  S
O2176     Mg2206   2.327       .  S
C2177      O2190   1.277   1_556  A
C2177      O2518   1.273       .  A
C2177      C2236   1.489       .  S
C2178      O2205   1.271       .  A
C2178      C2224   1.498       .  S
Mg2179     O2186   2.145       .  S
Mg2179     O2180   2.301       .  S
Mg2179     O2181   2.295       .  S
Mg2179     O2208   2.245       .  S
O2181      C2521   1.268   1_554  A
O2182      C2513   1.273       .  A
O2182     Mg2189   2.286       .  S
O2183      C2202   1.271       .  A
O2184      C2540   1.275       .  A
O2184     Mg2200   2.301       .  S
C2185      O2517   1.268       .  A
O2186      C2533   1.235       .  S
O2186     Mg2200   2.160       .  S
O2187     Mg2206   2.160       .  S
O2188     Mg2200   2.299       .  S
Mg2189     O2205   2.273       .  S
O2190     Mg2206   2.298       .  S
H2191      C2196   1.081       .  S
O2192     Mg2499   2.156   1_554  S
O2192     Mg2200   2.146       .  S
H2193      C2195   1.082       .  S
H2194      C2197   1.080       .  S
C2195      O2503   1.269   1_554  A
C2197      O2522   1.235       .  S
O2199     Mg2206   2.300       .  S
C2202      C2308   1.489       .  S
O2203      C2204   1.275       .  A
C2204      O2520   1.275       .  A
C2204      C2245   1.490       .  S
Mg2206     O2500   2.166   1_554  S
C2209      C2210   1.401       .  A
C2209      C2214   1.414       .  A
C2210      H2219   1.084       .  S
C2210      C2211   1.404       .  A
C2211      C2212   1.423       .  A
C2211      S2215   1.802       .  S
C2212      C2213   1.408       .  A
C2213      H2220   1.084       .  S
C2213      C2214   1.397       .  A
C2214      S2216   1.803       .  S
S2215      H2218   1.408       .  S
S2216      H2217   1.407       .  S
C2221      C2222   1.407       .  A
C2221      C2226   1.414       .  A
C2222      H2231   1.082       .  S
C2222      C2223   1.406       .  A
C2223      C2224   1.419       .  A
C2223      S2227   1.810       .  S
C2224      C2225   1.411       .  A
C2225      H2232   1.083       .  S
C2225      C2226   1.402       .  A
C2226      S2228   1.803       .  S
S2227      H2230   1.407       .  S
S2228      H2229   1.407       .  S
C2233      C2570   1.412       .  A
C2233      C2238   1.419       .  A
C2234      H2243   1.083       .  S
C2234      C2569   1.412   1_554  A
C2234      C2235   1.402       .  A
C2235      C2236   1.410   1_554  A
C2235      S2239   1.802       .  S
C2236      C2573   1.408       .  A
C2237      H2244   1.083       .  S
C2237      C2572   1.408       .  A
C2237      C2238   1.406       .  A
C2238      S2240   1.811       .  S
S2239      H2242   1.407       .  S
S2240      H2241   1.407       .  S
C2245      C2582   1.408       .  A
C2245      C2250   1.413       .  A
C2246      H2255   1.084       .  S
C2246      C2581   1.410       .  A
C2246      C2247   1.404       .  A
C2247      C2248   1.415       .  A
C2247      S2251   1.802       .  S
C2248      C2585   1.411   1_554  A
C2249      H2256   1.083       .  S
C2249      C2584   1.413       .  A
C2249      C2250   1.403       .  A
C2250      S2252   1.803       .  S
S2251      H2254   1.408       .  S
S2252      H2253   1.407       .  S
C2257      C2258   1.404       .  A
C2257      C2262   1.412       .  A
C2258      H2267   1.083       .  S
C2258      C2259   1.409       .  A
C2259      C2260   1.423       .  A
C2259      S2263   1.810       .  S
C2260      C2261   1.408       .  A
C2261      H2268   1.084       .  S
C2261      C2262   1.393       .  A
C2262      S2264   1.806       .  S
S2263      H2266   1.407       .  S
S2264      H2265   1.407       .  S
C2269      C2270   1.403       .  A
C2269      C2274   1.407       .  A
C2270      H2279   1.085       .  S
C2270      C2271   1.403       .  A
C2271      C2272   1.421       .  A
C2271      S2275   1.801       .  S
C2272      C2273   1.412       .  A
C2273      H2280   1.084       .  S
C2273      C2274   1.396       .  A
C2274      S2276   1.805       .  S
S2275      H2278   1.407       .  S
S2276      H2277   1.407       .  S
C2281      C2282   1.410       .  A
C2281      C2286   1.416       .  A
C2282      H2291   1.084       .  S
C2282      C2283   1.405       .  A
C2283      C2284   1.412       .  A
C2283      S2287   1.803       .  S
C2284      C2285   1.407       .  A
C2285      H2292   1.084       .  S
C2285      C2286   1.404       .  A
C2286      S2288   1.803       .  S
S2287      H2290   1.407       .  S
S2288      H2289   1.407       .  S
C2293      C2294   1.401       .  A
C2293      C2298   1.417       .  A
C2294      H2303   1.084       .  S
C2294      C2295   1.404       .  A
C2295      C2296   1.425       .  A
C2295      S2299   1.801       .  S
C2296      C2297   1.407       .  A
C2297      H2304   1.084       .  S
C2297      C2298   1.403       .  A
C2298      S2300   1.801       .  S
S2299      H2302   1.408       .  S
S2300      H2301   1.407       .  S
C2305      C2310   1.411       .  A
C2306      H2315   1.084       .  S
C2306      C2307   1.402       .  A
C2307      S2311   1.802       .  S
C2308      C2309   1.409       .  A
C2309      H2316   1.084       .  S
C2309      C2310   1.398       .  A
C2310      S2312   1.805       .  S
S2311      H2314   1.407       .  S
S2312      H2313   1.407       .  S
C2317      C2322   1.411   1_545  A
C2318      H2327   1.084       .  S
C2318      C2319   1.402       .  A
C2319      S2323   1.801       .  S
C2320      C2321   1.411   1_545  A
C2321      H2328   1.083       .  S
C2321      C2322   1.399       .  A
C2322      S2324   1.805       .  S
S2323      H2326   1.408       .  S
S2324      H2325   1.407       .  S
C2329      C2330   1.406       .  A
C2330      H2339   1.082       .  S
C2330      C2331   1.396       .  A
C2331      S2335   1.808       .  S
C2332      C2333   1.399       .  A
C2333      H2340   1.084       .  S
C2333      C2334   1.403       .  A
C2334      S2336   1.802       .  S
S2335      H2338   1.403       .  S
S2336      H2337   1.408       .  S
C2341      C2342   1.402   1_455  A
C2342      H2351   1.083       .  S
C2342      C2343   1.407       .  A
C2343      S2347   1.802       .  S
C2344      C2345   1.403       .  A
C2345      H2352   1.084       .  S
C2345      C2346   1.394       .  A
C2346      S2348   1.807       .  S
S2347      H2350   1.407       .  S
S2348      H2349   1.406       .  S
O2353      C2388   1.234       .  S
O2353     Mg2361   2.160       .  S
C2354      O2367   1.236       .  S
C2354      O2391   1.271       .  A
C2354      H2393   1.081       .  S
Mg2355     O2384   2.162       .  S
Mg2355     O2399   2.274       .  S
Mg2355     O2395   2.262       .  S
O2356      C2377   1.236       .  S
O2356     Mg2398   2.163       .  S
O2357      C2388   1.269   1_455  A
O2357     Mg2381   2.302   1_455  S
C2358      O2360   1.270       .  A
C2358      O2372   1.279       .  A
C2358      C2629   1.488       .  S
O2359      C2387   1.272       .  A
O2360     Mg2392   2.255       .  S
Mg2361     O2367   2.154       .  S
Mg2361     O2375   2.291       .  S
Mg2361     O2363   2.337       .  S
C2362      O2368   1.271       .  A
C2362      C2641   1.474       .  S
O2363      C2370   1.280       .  A
H2364      C2377   1.079       .  S
C2365      O2379   1.233       .  S
C2365      O2380   1.268       .  A
C2365      H2390   1.082       .  S
O2366      C2389   1.270       .  A
O2367     Mg2381   2.157       .  S
O2368     Mg2398   2.278       .  S
C2369      O2374   1.274   1_455  A
C2369      C2677   1.472       .  S
C2370      O2397   1.273       .  A
C2370      C2620   1.489       .  S
Mg2371     O2378   2.150       .  S
Mg2371     O2379   2.162       .  S
Mg2371     O2372   2.333       .  S
Mg2371     O2400   2.277       .  S
O2373      C2377   1.271       .  A
O2374     Mg2381   2.313       .  S
O2376      C2396   1.272       .  A
O2376     Mg2392   2.298       .  S
O2378      C2389   1.236       .  S
O2378     Mg2392   2.160       .  S
O2380     Mg2392   2.298       .  S
Mg2381     O2397   2.267       .  S
O2382     Mg2398   2.262       .  S
H2383      C2388   1.081       .  S
O2384      C2387   1.236       .  S
H2385      C2387   1.079       .  S
H2386      C2389   1.081       .  S
C2394      O2399   1.271   1_545  A
C2394      C2653   1.476       .  S
C2396      C2668   1.471       .  S
O2401      C2436   1.236       .  S
O2401     Mg2403   2.165       .  S
C2402      O2439   1.271       .  A
C2402      H2441   1.080       .  S
Mg2403     O2447   2.308       .  S
Mg2403     O2443   2.288       .  S
Mg2403     O2414   2.301       .  S
O2404     Mg2429   2.140       .  S
O2405     Mg2429   2.300       .  S
C2406      O2408   1.269       .  A
C2406      O2420   1.274       .  A
C2406      C2596   1.495       .  S
O2407     Mg2409   2.300       .  S
O2408     Mg2440   2.229       .  S
Mg2409     O2415   2.161       .  S
Mg2409     O2423   2.270       .  S
Mg2409     O2411   2.320       .  S
C2410      O2448   1.273       .  A
C2410      C2680   1.482       .  S
O2411      C2418   1.275       .  A
H2412      C2425   1.081       .  S
C2413      O2427   1.235   1_655  S
C2413      H2438   1.081       .  S
O2414      C2437   1.270       .  A
O2415     Mg2429   2.162       .  S
O2416     Mg2446   2.306       .  S
C2417      O2430   1.271       .  A
C2417      C2569   1.497       .  S
C2418      O2445   1.270       .  A
C2418      C2608   1.495       .  S
Mg2419     O2426   2.151       .  S
Mg2419     O2420   2.315       .  S
Mg2419     O2421   2.297       .  S
Mg2419     O2448   2.254       .  S
O2422     Mg2429   2.307       .  S
O2423      C2442   1.275       .  A
O2424     Mg2440   2.294       .  S
O2426     Mg2440   2.154       .  S
O2427     Mg2446   2.149   1_455  S
O2428     Mg2440   2.297       .  S
Mg2429     O2445   2.240       .  S
O2430     Mg2446   2.270       .  S
H2431      C2436   1.081       .  S
O2432     Mg2440   2.132       .  S
H2433      C2435   1.081       .  S
H2434      C2437   1.080       .  S
O2439     Mg2446   2.304       .  S
C2442      C2665   1.486       .  S
O2443      C2444   1.274       .  A
C2444      C2584   1.498       .  S
O2449      C2484   1.235       .  S
O2449     Mg2451   2.144       .  S
O2449     Mg2457   2.148       .  S
C2450      O2463   1.235       .  S
C2450      O2487   1.269       .  A
C2450      H2489   1.081       .  S
Mg2451     O2480   2.169       .  S
Mg2451     O2495   2.316       .  S
Mg2451     O2491   2.245       .  S
Mg2451     O2462   2.297       .  S
O2452      C2473   1.235       .  S
O2452     Mg2494   2.161       .  S
O2452     Mg2477   2.154       .  S
O2453      C2484   1.270       .  A
O2453     Mg2477   2.302       .  S
C2454      O2456   1.274       .  A
C2454      O2468   1.273       .  A
C2454      C2545   1.480       .  S
O2455      C2483   1.271       .  A
O2455     Mg2457   2.305       .  S
O2456     Mg2488   2.280       .  S
Mg2457     O2463   2.153       .  S
Mg2457     O2471   2.287       .  S
Mg2457     O2459   2.311       .  S
C2458      O2496   1.275       .  A
C2458      O2464   1.271       .  A
C2458      C2632   1.498       .  S
O2459      C2466   1.278       .  A
H2460      C2473   1.081       .  S
C2461      O2475   1.234       .  S
C2461      O2476   1.268       .  A
C2461      H2486   1.080       .  S
O2462      C2485   1.269       .  A
O2463     Mg2477   2.163       .  S
O2464     Mg2494   2.294       .  S
C2465      O2478   1.267       .  A
C2465      O2470   1.278       .  A
C2465      C2593   1.480       .  S
C2466      O2493   1.275       .  A
C2466      C2557   1.490       .  S
Mg2467     O2474   2.157       .  S
Mg2467     O2475   2.154       .  S
Mg2467     O2468   2.290       .  S
Mg2467     O2469   2.297       .  S
Mg2467     O2496   2.292       .  S
O2469      C2473   1.269       .  A
O2470     Mg2477   2.333       .  S
O2471      C2490   1.274       .  A
O2472      C2492   1.275       .  A
O2472     Mg2488   2.309       .  S
O2474      C2485   1.235       .  S
O2474     Mg2488   2.172       .  S
O2475     Mg2494   2.131       .  S
O2476     Mg2488   2.294       .  S
Mg2477     O2493   2.274       .  S
O2478     Mg2494   2.220       .  S
H2479      C2484   1.081       .  S
O2480      C2483   1.237       .  S
O2480     Mg2488   2.164       .  S
H2481      C2483   1.081       .  S
H2482      C2485   1.081       .  S
O2487     Mg2494   2.294       .  S
C2490      O2495   1.276       .  A
C2490      C2617   1.494       .  S
O2491      C2492   1.270       .  A
C2492      C2605   1.473       .  S
O2497      C2532   1.235       .  S
O2497     Mg2499   2.159       .  S
C2498      O2535   1.270       .  A
C2498      H2537   1.081       .  S
Mg2499     O2543   2.327       .  S
Mg2499     O2539   2.293       .  S
Mg2499     O2510   2.298       .  S
O2500     Mg2525   2.152       .  S
O2501     Mg2525   2.302       .  S
C2502      O2504   1.272       .  A
C2502      O2516   1.273       .  A
C2502      C2548   1.497       .  S
O2503     Mg2505   2.300       .  S
O2504     Mg2536   2.263       .  S
Mg2505     O2511   2.147       .  S
Mg2505     O2519   2.242       .  S
Mg2505     O2507   2.307       .  S
C2506      O2544   1.272   1_545  A
C2506      C2656   1.495       .  S
O2507      C2514   1.275       .  A
H2508      C2521   1.081       .  S
C2509      O2523   1.236       .  S
C2509      H2534   1.081       .  S
O2510      C2533   1.269   1_556  A
O2511     Mg2525   2.154       .  S
O2512     Mg2542   2.327       .  S
C2513      O2526   1.277       .  A
C2513      C2572   1.490       .  S
C2514      O2541   1.270       .  A
C2514      C2560   1.498       .  S
Mg2515     O2522   2.151       .  S
Mg2515     O2516   2.305       .  S
Mg2515     O2517   2.296       .  S
Mg2515     O2544   2.251       .  S
O2518     Mg2525   2.286       .  S
O2519      C2538   1.271       .  A
O2520     Mg2536   2.299       .  S
O2522     Mg2536   2.162       .  S
O2523     Mg2542   2.163       .  S
O2524     Mg2536   2.298       .  S
Mg2525     O2541   2.270       .  S
O2526     Mg2542   2.302       .  S
H2527      C2532   1.081       .  S
O2528     Mg2536   2.148       .  S
H2529      C2531   1.082       .  S
H2530      C2533   1.080       .  S
O2535     Mg2542   2.299       .  S
C2538      C2644   1.490       .  S
O2539      C2540   1.276   1_556  A
C2540      C2581   1.494       .  S
C2545      C2546   1.401       .  A
C2545      C2550   1.414       .  A
C2546      H2555   1.084       .  S
C2546      C2547   1.404       .  A
C2547      C2548   1.422       .  A
C2547      S2551   1.802       .  S
C2548      C2549   1.408       .  A
C2549      H2556   1.084       .  S
C2549      C2550   1.397       .  A
C2550      S2552   1.803       .  S
S2551      H2554   1.408       .  S
S2552      H2553   1.407       .  S
C2557      C2558   1.407       .  A
C2557      C2562   1.414       .  A
C2558      H2567   1.082       .  S
C2558      C2559   1.406       .  A
C2559      C2560   1.419       .  A
C2559      S2563   1.810       .  S
C2560      C2561   1.410       .  A
C2561      H2568   1.083       .  S
C2561      C2562   1.401       .  A
C2562      S2564   1.804       .  S
S2563      H2566   1.407       .  S
S2564      H2565   1.407       .  S
C2569      C2574   1.419       .  A
C2570      H2579   1.083       .  S
C2570      C2571   1.402       .  A
C2571      C2572   1.411       .  A
C2571      S2575   1.802       .  S
C2573      H2580   1.083       .  S
C2573      C2574   1.405       .  A
C2574      S2576   1.811       .  S
S2575      H2578   1.407       .  S
S2576      H2577   1.407       .  S
C2581      C2586   1.414   1_554  A
C2582      H2591   1.084       .  S
C2582      C2583   1.402       .  A
C2583      C2584   1.417       .  A
C2583      S2587   1.802       .  S
C2585      H2592   1.083       .  S
C2585      C2586   1.402       .  A
C2586      S2588   1.803       .  S
S2587      H2590   1.407       .  S
S2588      H2589   1.408       .  S
C2593      C2594   1.404       .  A
C2593      C2598   1.411       .  A
C2594      H2603   1.083       .  S
C2594      C2595   1.409       .  A
C2595      C2596   1.422       .  A
C2595      S2599   1.810       .  S
C2596      C2597   1.408       .  A
C2597      H2604   1.084       .  S
C2597      C2598   1.392       .  A
C2598      S2600   1.806       .  S
S2599      H2602   1.407       .  S
S2600      H2601   1.407       .  S
C2605      C2606   1.402       .  A
C2605      C2610   1.407       .  A
C2606      H2615   1.085       .  S
C2606      C2607   1.403       .  A
C2607      C2608   1.421       .  A
C2607      S2611   1.801       .  S
C2608      C2609   1.412       .  A
C2609      H2616   1.084       .  S
C2609      C2610   1.396       .  A
C2610      S2612   1.805       .  S
S2611      H2614   1.407       .  S
S2612      H2613   1.407       .  S
C2617      C2618   1.410       .  A
C2617      C2622   1.416       .  A
C2618      H2627   1.084       .  S
C2618      C2619   1.405       .  A
C2619      C2620   1.413       .  A
C2619      S2623   1.803       .  S
C2620      C2621   1.407       .  A
C2621      H2628   1.084       .  S
C2621      C2622   1.403       .  A
C2622      S2624   1.803       .  S
S2623      H2626   1.407       .  S
S2624      H2625   1.407       .  S
C2629      C2630   1.401       .  A
C2629      C2634   1.417       .  A
C2630      H2639   1.084       .  S
C2630      C2631   1.404       .  A
C2631      C2632   1.425       .  A
C2631      S2635   1.801       .  S
C2632      C2633   1.405       .  A
C2633      H2640   1.084       .  S
C2633      C2634   1.402       .  A
C2634      S2636   1.801       .  S
S2635      H2638   1.408       .  S
S2636      H2637   1.407       .  S
C2641      C2646   1.411       .  A
C2642      H2651   1.084       .  S
C2642      C2643   1.401       .  A
C2643      S2647   1.802       .  S
C2644      C2645   1.409       .  A
C2645      H2652   1.084       .  S
C2645      C2646   1.398       .  A
C2646      S2648   1.806       .  S
S2647      H2650   1.407       .  S
S2648      H2649   1.407       .  S
C2653      C2658   1.412   1_545  A
C2654      H2663   1.084       .  S
C2654      C2655   1.402       .  A
C2655      S2659   1.801       .  S
C2656      C2657   1.410   1_545  A
C2657      H2664   1.083       .  S
C2657      C2658   1.399       .  A
C2658      S2660   1.806       .  S
S2659      H2662   1.408       .  S
S2660      H2661   1.407       .  S
C2665      C2666   1.404       .  A
C2666      H2675   1.083       .  S
C2666      C2667   1.395       .  A
C2667      S2671   1.807       .  S
C2668      C2669   1.402       .  A
C2669      H2676   1.083       .  S
C2669      C2670   1.406       .  A
C2670      S2672   1.802       .  S
S2671      H2674   1.406       .  S
S2672      H2673   1.407       .  S
C2677      C2678   1.401   1_455  A
C2678      H2687   1.084       .  S
C2678      C2679   1.406       .  A
C2679      S2683   1.802       .  S
C2680      C2681   1.404       .  A
C2681      H2688   1.084       .  S
C2681      C2682   1.394       .  A
C2682      S2684   1.807       .  S
S2683      H2686   1.407       .  S
S2684      H2685   1.406       .  S
