geometry optimzed in LAMMPS
_audit_creation_date              2020-11-30 
_audit_creation_method            'lammps2cif' 
_symmetry_space_group_name_H-M    'P1' 
_symmetry_Int_Tables_number       1 
_symmetry_cell_setting            triclinic 
loop_ 
_symmetry_equiv_pos_as_xyz 
  x,y,z 
_cell_length_a                    48.45932261245593 
_cell_length_b                    48.766087349200745 
_cell_length_c                    26.95074470340213 
_cell_angle_alpha                 90.27426739631264 
_cell_angle_beta                  90.42105814889399 
_cell_angle_gamma                 90.05473987389155 
loop_ 
_atom_site_label 
_atom_site_type_symbol 
_atom_site_fract_x 
_atom_site_fract_y 
_atom_site_fract_z 
_atom_site_charge 
N1          N  0.72525918  0.72812689  0.57542870    -0.27110
N2          N  0.71076037  0.70966963  0.59975294    -0.34970
C3          C  0.71519018  0.71303087  0.64869988     0.01230
C4          C  0.73322949  0.73481040  0.65562401     0.07260
C5          C  0.73925015  0.74378089  0.60819661    -0.05840
H6          H  0.70572212  0.70067634  0.67714766     0.07920
H7          H  0.75321812  0.76005136  0.59790961     0.09120
Cu8        Cu  0.68537462  0.68109062  0.56519416     0.44170
Cu9        Cu  0.72575818  0.73091711  0.49883902     0.41990
Cu10       Cu  0.68273491  0.68286746  0.43059268     0.43880
N11         N  0.66018937  0.65594701  0.52231303    -0.34500
N12         N  0.65896064  0.65674939  0.47333783    -0.28750
C13         C  0.63990932  0.63863421  0.45728575    -0.04850
C14         C  0.62869225  0.62563860  0.49810175     0.07370
C15         C  0.64204557  0.63726754  0.53870449     0.01160
H16         H  0.63461554  0.63523115  0.41868051     0.08810
H17         H  0.63830979  0.63319865  0.57748420     0.07890
N18         N  0.70848408  0.71122134  0.39712637    -0.35940
N19         N  0.72390998  0.72893877  0.42215590    -0.28120
C20         C  0.73830746  0.74420704  0.39000542    -0.03360
C21         C  0.73165638  0.73574442  0.34224945     0.05250
C22         C  0.71275723  0.71468369  0.34830551     0.03340
H23         H  0.75315092  0.75971767  0.40088898     0.08450
H24         H  0.70281247  0.70271668  0.31937569     0.07280
N25         N  0.78522262  0.78104665  0.07727398    -0.27110
N26         N  0.80061858  0.79879947  0.10228163    -0.34970
C27         C  0.79640200  0.79530361  0.15111090     0.01230
C28         C  0.77756965  0.77418630  0.15719758     0.07260
C29         C  0.77090295  0.76572202  0.10944866    -0.05840
H30         H  0.80630031  0.80732230  0.18002159     0.07920
H31         H  0.75607014  0.75019731  0.09858543     0.09120
Cu32       Cu  0.82607331  0.82740394  0.06878698     0.44170
Cu33       Cu  0.78321499  0.77915705  0.00059146     0.41990
Cu34       Cu  0.82270072  0.82967388  0.93426507     0.43880
N35         N  0.84899343  0.85425341  0.02601742    -0.34500
N36         N  0.84741396  0.85529087  0.97708383    -0.28750
C37         C  0.86476931  0.87468979  0.96067203    -0.04850
C38         C  0.87797032  0.88652915  0.00121609     0.07370
C39         C  0.86751818  0.87291398  0.04201795     0.01160
H40         H  0.86803353  0.87919803  0.92190821     0.08810
H41         H  0.87289111  0.87635270  0.08058024     0.07890
N42         N  0.79776156  0.80072537  0.89969800    -0.35940
N43         N  0.78354848  0.78204549  0.92400600    -0.28120
C44         C  0.76971412  0.76625941  0.89123048    -0.03360
C45         C  0.77554918  0.77536915  0.84380416     0.05250
C46         C  0.79331646  0.79736891  0.85075851     0.03340
H47         H  0.75595810  0.74981568  0.90153031     0.08450
H48         H  0.80256913  0.80990430  0.82234029     0.07280
N49         N  0.71827259  0.28361064  0.57642963    -0.27110
N50         N  0.70334774  0.30197068  0.60042212    -0.34970
C51         C  0.70746830  0.29901440  0.64948028     0.01230
C52         C  0.72603336  0.27778711  0.65699007     0.07260
C53         C  0.73229976  0.26845472  0.60967507    -0.05840
H54         H  0.69705875  0.31106376  0.67740275     0.07920
H55         H  0.74617251  0.25193886  0.60000493     0.09120
Cu56       Cu  0.67743763  0.32979824  0.56574522     0.44170
Cu57       Cu  0.71861999  0.27996315  0.49959433     0.41990
Cu58       Cu  0.67149692  0.32453299  0.43241648     0.43880
N59         N  0.65155475  0.35423346  0.52343036    -0.34500
N60         N  0.64876202  0.35180602  0.47479461    -0.28750
C61         C  0.62985125  0.36997114  0.45884244    -0.04850
C62         C  0.62053305  0.38477706  0.49935049     0.07370
C63         C  0.63470835  0.37416667  0.53969661     0.01160
H64         H  0.62364230  0.37246405  0.42048753     0.08810
H65         H  0.63256525  0.38004727  0.57822380     0.07890
N66         N  0.69828422  0.29733425  0.39836863    -0.35940
N67         N  0.71549468  0.28115783  0.42270152    -0.28120
C68         C  0.73052722  0.26689825  0.38972948    -0.03360
C69         C  0.72238876  0.27436064  0.34220222     0.05250
C70         C  0.70192374  0.29382235  0.34934693     0.03340
H71         H  0.74633030  0.25224522  0.39975920     0.08450
H72         H  0.69103812  0.30539571  0.32128217     0.07280
N73         N  0.77715689  0.22921852  0.07698059    -0.27110
N74         N  0.79356803  0.21228908  0.10141139    -0.34970
C75         C  0.78967112  0.21566065  0.15039726     0.01230
C76         C  0.76984873  0.23577324  0.15737323     0.07260
C77         C  0.76234419  0.24378844  0.10984172    -0.05840
H78         H  0.79996322  0.20363774  0.17856634     0.07920
H79         H  0.74715204  0.25905621  0.09976226     0.09120
Cu80       Cu  0.81990709  0.18462521  0.06744058     0.44170
Cu81       Cu  0.77489354  0.23108911  0.00008047     0.41990
Cu82       Cu  0.81767332  0.18273403  0.93343240     0.43880
N83         N  0.84409684  0.15869321  0.02492438    -0.34500
N84         N  0.84317255  0.15794472  0.97593770    -0.28750
C85         C  0.86137232  0.13926088  0.95955321    -0.04850
C86         C  0.87439620  0.12752249  0.00022040     0.07370
C87         C  0.86294278  0.14051320  0.04103738     0.01160
H88         H  0.86522805  0.13515101  0.92076647     0.08810
H89         H  0.86782540  0.13696706  0.07970593     0.07890
N90         N  0.79093818  0.20993893  0.89901649    -0.35940
N91         N  0.77552481  0.22780617  0.92323210    -0.28120
C92         C  0.76098176  0.24262378  0.89020466    -0.03360
C93         C  0.76737483  0.23355106  0.84280814     0.05250
C94         C  0.78656359  0.21284678  0.85000183     0.03340
H95         H  0.74665104  0.25871150  0.90007255     0.08450
H96         H  0.79718957  0.20114115  0.82186270     0.07280
N97         N  0.28491167  0.73690343  0.57653865    -0.27110
N98         N  0.30296200  0.72163810  0.60087593    -0.34970
C99         C  0.29977627  0.72569869  0.64987430     0.01230
C100        C  0.27865400  0.74442911  0.65684797     0.07260
C101        C  0.26967967  0.75098866  0.60943644    -0.05840
H102        H  0.31130041  0.71491827  0.67820661     0.07920
H103        H  0.25312896  0.76482911  0.59948755     0.09120
Cu104      Cu  0.32971764  0.69437003  0.56691438     0.44170
Cu105      Cu  0.28096337  0.73718461  0.49986174     0.41990
Cu106      Cu  0.32180401  0.68712312  0.43402332     0.43880
N107        N  0.35172280  0.66640267  0.52472620    -0.34500
N108        N  0.34835385  0.66340861  0.47630872    -0.28750
C109        C  0.36503876  0.64332665  0.46013357    -0.04850
C110        C  0.37964949  0.63308255  0.50033667     0.07370
C111        C  0.37075404  0.64835662  0.54064444     0.01160
H112        H  0.36675974  0.63714270  0.42169625     0.08810
H113        H  0.37735781  0.64630476  0.57887755     0.07890
N114        N  0.29554819  0.71457106  0.39927176    -0.35940
N115        N  0.28085392  0.73313105  0.42322378    -0.28120
C116        C  0.26694789  0.74839569  0.39000868    -0.03360
C117        C  0.27303894  0.73889191  0.34277927     0.05250
C118        C  0.29133320  0.71745002  0.35022743     0.03340
H119        H  0.25343069  0.76521281  0.39962155     0.08450
H120        H  0.30161509  0.70535097  0.32218995     0.07280
N121        N  0.22705327  0.79048759  0.07606294    -0.27110
N122        N  0.21143300  0.80817490  0.10028128    -0.34970
C123        C  0.21563170  0.80511377  0.14930020     0.01230
C124        C  0.23481751  0.78443170  0.15640426     0.07260
C125        C  0.24148679  0.77556083  0.10906694    -0.05840
H126        H  0.20479732  0.81654994  0.17757149     0.07920
H127        H  0.25578040  0.75942733  0.09925860     0.09120
Cu128      Cu  0.18413930  0.83477649  0.06584845     0.44170
Cu129      Cu  0.22770233  0.78726350  0.99932909     0.41990
Cu130      Cu  0.17983577  0.83094771  0.93205683     0.43880
N131        N  0.15777590  0.85869832  0.02348669    -0.34500
N132        N  0.15612813  0.85731375  0.97460302    -0.28750
C133        C  0.13712911  0.87537383  0.95863485    -0.04850
C134        C  0.12628630  0.88893196  0.99944204     0.07370
C135        C  0.13984854  0.87760589  0.03995964     0.01160
H136        H  0.13180802  0.87851749  0.92003323     0.08810
H137        H  0.13664776  0.88216262  0.07876272     0.07890
N138        N  0.20683397  0.80389644  0.89814942    -0.35940
N139        N  0.22454321  0.78828654  0.92257818    -0.28120
C140        C  0.23982080  0.77419708  0.88974807    -0.03360
C141        C  0.23119189  0.78108541  0.84229934     0.05250
C142        C  0.21025833  0.80002982  0.84915933     0.03340
H143        H  0.25608417  0.76003903  0.89976370     0.08450
H144        H  0.19894135  0.81097577  0.82076640     0.07280
O145        O  0.97283985  0.97922022  0.04160405    -0.72760
O146        O  0.03063616  0.03814347  0.03989405    -0.73740
O147        O  0.97199879  0.03769111  0.04183851    -0.62360
O148        O  0.03130747  0.98034214  0.03950847    -0.70770
O149        O  0.02991099  0.98013096  0.95721752    -0.70330
O150        O  0.97020421  0.03707036  0.95957557    -0.61580
O151        O  0.02858242  0.03869422  0.95752255    -0.74090
O152        O  0.97132376  0.97925056  0.95929058    -0.72870
Cu153      Cu  0.00170887  0.00885773  0.04358382     1.04560
Cu154      Cu  0.00000907  0.00877471  0.95552367     1.04330
C155        C  0.96296538  0.96991180  0.00076178     0.93430
C156        C  0.03862251  0.04773539  0.99841220     0.92570
C157        C  0.96166775  0.04640789  0.00107451     0.84720
C158        C  0.04000602  0.97117416  0.99799425     0.90990
O159        O  0.52945421  0.53730153  0.45779342    -0.72760
O160        O  0.47010337  0.47996695  0.46001431    -0.73740
O161        O  0.47082228  0.53803910  0.45925911    -0.62360
O162        O  0.52822889  0.47884914  0.45859176    -0.70770
O163        O  0.52907279  0.47927780  0.54098956    -0.70330
O164        O  0.47292547  0.53964396  0.54152504    -0.61580
O165        O  0.47031827  0.48133782  0.54228685    -0.74090
O166        O  0.53132175  0.53707915  0.54006946    -0.72870
Cu167      Cu  0.49963175  0.50855562  0.45604657     1.04560
Cu168      Cu  0.50090709  0.50934804  0.54410319     1.04330
C169        C  0.53994740  0.54608481  0.49853344     0.93430
C170        C  0.46080457  0.47157770  0.50147390     0.92570
C171        C  0.46293554  0.54829467  0.50049378     0.84720
C172        C  0.53755780  0.46961647  0.49969502     0.90990
N173        N  0.21945020  0.23304313  0.92232047    -0.27110
N174        N  0.20340674  0.21573287  0.89760139    -0.34970
C175        C  0.20739764  0.21905695  0.84868674     0.01230
C176        C  0.22680539  0.23957196  0.84225100     0.07260
C177        C  0.23386877  0.24805758  0.88977906    -0.05840
H178        H  0.19637531  0.20785984  0.82001505     0.07920
H179        H  0.24851519  0.26389606  0.90001911     0.09120
Cu180      Cu  0.17611343  0.18906251  0.93130200     0.44170
Cu181      Cu  0.22115823  0.23532515  0.99907183     0.41990
Cu182      Cu  0.17730465  0.18818516  0.06572315     0.43880
N183        N  0.15141078  0.16369744  0.97356550    -0.34500
N184        N  0.15263706  0.16262863  0.02255585    -0.28750
C185        C  0.13507293  0.14326382  0.03846842    -0.04850
C186        C  0.12195940  0.13189338  0.99754759     0.07370
C187        C  0.13264988  0.14540658  0.95703993     0.01160
H188        H  0.13176311  0.13816909  0.07699850     0.08810
H189        H  0.12755215  0.14186551  0.91838513     0.07890
N190        N  0.20328589  0.21633955  0.10015313    -0.35940
N191        N  0.21959197  0.23323767  0.07577012    -0.28120
C192        C  0.23421577  0.24829702  0.10857896    -0.03360
C193        C  0.22672086  0.24057034  0.15599747     0.05250
C194        C  0.20691368  0.22038281  0.14916272     0.03340
H195        H  0.24887473  0.26401062  0.09847791     0.08450
H196        H  0.19621105  0.20914122  0.17770288     0.07280
N197        N  0.27268205  0.29180609  0.57743328    -0.27110
N198        N  0.28808960  0.30968444  0.60211107    -0.34970
C199        C  0.28402500  0.30643709  0.65101184     0.01230
C200        C  0.26516781  0.28542082  0.65752264     0.07260
C201        C  0.25854218  0.27654593  0.61000346    -0.05840
H202        H  0.29469151  0.31801164  0.67962140     0.07920
H203        H  0.24442014  0.26024210  0.59978172     0.09120
Cu204      Cu  0.31495074  0.33675077  0.56841280     0.44170
Cu205      Cu  0.27173489  0.28898821  0.50070059     0.41990
Cu206      Cu  0.31861306  0.33357389  0.43437823     0.43880
N207        N  0.34134775  0.36065913  0.52674948    -0.34500
N208        N  0.34279289  0.35946209  0.47786367    -0.28750
C209        C  0.36210630  0.37723837  0.46247784    -0.04850
C210        C  0.37338606  0.39039356  0.50365660     0.07370
C211        C  0.35971174  0.37917213  0.54378908     0.01160
H212        H  0.36740488  0.38041177  0.42401117     0.08810
H213        H  0.36318689  0.38346943  0.58270429     0.07890
N214        N  0.29138471  0.30662112  0.39982044    -0.35940
N215        N  0.27408989  0.29064430  0.42403313    -0.28120
C216        C  0.25891824  0.27622800  0.39108270    -0.03360
C217        C  0.26701223  0.28345778  0.34370968     0.05250
C218        C  0.28777756  0.30266628  0.35078598     0.03340
H219        H  0.24348960  0.26125088  0.40111625     0.08450
H220        H  0.29919574  0.31330137  0.32238731     0.07280
C221        C  0.25522305  0.27394573  0.70491415    -0.05280
C222        C  0.24961925  0.24576151  0.70824915    -0.32710
C223        C  0.24069068  0.23423687  0.75280793     0.36540
C224        C  0.23684684  0.25100429  0.79493276    -0.05640
C225        C  0.24248651  0.27917072  0.79163648    -0.32610
C226        C  0.25137566  0.29070583  0.74707181     0.36440
H227        H  0.25272831  0.23246208  0.67647407     0.16810
O228        O  0.23642669  0.20646567  0.75498051    -0.60110
H229        H  0.23938128  0.29245462  0.82343810     0.16830
O230        O  0.25556035  0.31848820  0.74493617    -0.60210
H231        H  0.23782183  0.32618497  0.73285096     0.43820
H232        H  0.25414771  0.19872317  0.76705506     0.43780
C233        C  0.23723261  0.25161882  0.20378926    -0.05280
C234        C  0.21933237  0.25387562  0.24430818    -0.32710
C235        C  0.22859430  0.26449507  0.28981669     0.36540
C236        C  0.25636478  0.27265766  0.29576436    -0.05640
C237        C  0.27424449  0.27042551  0.25518265    -0.32610
C238        C  0.26495771  0.25987959  0.20964665     0.36440
H239        H  0.19788021  0.24791275  0.24043294     0.16810
O240        O  0.21010098  0.26737839  0.32774394    -0.60110
H241        H  0.29571453  0.27632032  0.25900378     0.16830
O242        O  0.28339355  0.25709939  0.17159898    -0.60210
H243        H  0.29048932  0.23808064  0.17430097     0.43820
H244        H  0.20309712  0.28642767  0.32496453     0.43780
C245        C  0.39582642  0.41118600  0.50409819    -0.05280
C246        C  0.41490080  0.41152791  0.46507785    -0.32710
C247        C  0.43610252  0.43100641  0.46376041     0.36540
C248        C  0.43878374  0.45055444  0.50217786    -0.05640
C249        C  0.41992221  0.45014780  0.54141082    -0.32610
C250        C  0.39852264  0.43081136  0.54253565     0.36440
H251        H  0.41364236  0.39644072  0.43554010     0.16810
O252        O  0.45474314  0.43002947  0.42572426    -0.60110
H253        H  0.42138517  0.46527339  0.57090160     0.16830
O254        O  0.37956515  0.43230183  0.57997482    -0.60210
H255        H  0.38924931  0.42530636  0.60988881     0.43820
H256        H  0.44560487  0.43953502  0.39761414     0.43780
C257        C  0.05978777  0.06932142  0.99782959    -0.05280
C258        C  0.08472489  0.06531876  0.02346340    -0.32710
C259        C  0.10530968  0.08545002  0.02298063     0.36540
C260        C  0.10087119  0.11013036  0.99727018    -0.05640
C261        C  0.07594152  0.11410426  0.97151552    -0.32610
C262        C  0.05533904  0.09395894  0.97202521     0.36440
H263        H  0.08841429  0.04633091  0.04315631     0.16810
O264        O  0.12990741  0.08058999  0.04683781    -0.60110
H265        H  0.07222618  0.13311064  0.95191177     0.16830
O266        O  0.03069487  0.09878961  0.94828381    -0.60210
H267        H  0.01831856  0.10618139  0.97429177     0.43820
H268        H  0.14216014  0.07276072  0.02106417     0.43780
C269        C  0.10441219  0.91027686  0.99933652    -0.05280
C270        C  0.08515922  0.91107511  0.96006136    -0.32710
C271        C  0.06412778  0.93074260  0.95900538     0.36540
C272        C  0.06205363  0.95022033  0.99756666    -0.05640
C273        C  0.08131391  0.94955825  0.03666196    -0.32610
C274        C  0.10238631  0.92994325  0.03774513     0.36440
H275        H  0.08603990  0.89609652  0.93033304     0.16810
O276        O  0.04545298  0.93038413  0.92051519    -0.60110
H277        H  0.08033786  0.96463256  0.06627230     0.16830
O278        O  0.12166916  0.93116561  0.07519273    -0.60210
H279        H  0.11203825  0.92457753  0.10523631     0.43820
H280        H  0.03001631  0.91873028  0.93208297     0.43780
C281        C  0.44188024  0.57011319  0.50063520    -0.05280
C282        C  0.41998338  0.56894974  0.46638677    -0.32710
C283        C  0.39935167  0.58899747  0.46639918     0.36540
C284        C  0.40075820  0.61111966  0.50027712    -0.05640
C285        C  0.42273481  0.61224468  0.53452818    -0.32610
C286        C  0.44321169  0.59201937  0.53480812     0.36440
H287        H  0.41849439  0.55204440  0.44025266     0.16810
O288        O  0.37757898  0.58629646  0.43396132    -0.60110
H289        H  0.42436492  0.62913183  0.56064004     0.16830
O290        O  0.46472971  0.59418135  0.56795558    -0.60210
H291        H  0.47951174  0.60391649  0.54980463     0.43820
H292        H  0.36314361  0.57641798  0.45273762     0.43780
C293        C  0.26321611  0.75026664  0.29487029    -0.05280
C294        C  0.25700920  0.77832790  0.29147592    -0.32710
C295        C  0.24807648  0.78978708  0.24664199     0.36540
C296        C  0.24487122  0.77309410  0.20412669    -0.05640
C297        C  0.25115170  0.74506233  0.20744216    -0.32610
C298        C  0.26002063  0.73358134  0.25229860     0.36440
H299        H  0.25961203  0.79163321  0.32346291     0.16810
O300        O  0.24314510  0.81744614  0.24468670    -0.60110
H301        H  0.24855107  0.73178999  0.17540186     0.16830
O302        O  0.26482595  0.70590218  0.25420516    -0.60210
H303        H  0.24717958  0.69770578  0.26523290     0.43820
H304        H  0.26074282  0.82571127  0.23357539     0.43780
C305        C  0.24303765  0.77150091  0.79475086    -0.05280
C306        C  0.27126906  0.76522236  0.79227077    -0.32710
C307        C  0.28321120  0.75671756  0.74764831     0.36540
C308        C  0.26680981  0.75394644  0.70446685    -0.05640
C309        C  0.23856601  0.76018981  0.70698333    -0.32610
C310        C  0.22663168  0.76871107  0.75159451     0.36440
H311        H  0.28433860  0.76750574  0.82480808     0.16810
O312        O  0.31105763  0.75181738  0.74656969    -0.60110
H313        H  0.22547661  0.75789280  0.67447843     0.16830
O314        O  0.19878563  0.77361868  0.75269563    -0.60210
H315        H  0.19034486  0.75602990  0.76307676     0.43820
H316        H  0.31949824  0.76941577  0.73624277     0.43780
C317        C  0.93944882  0.06718678  0.00154032    -0.05280
C318        C  0.92012075  0.06766981  0.96250973    -0.32710
C319        C  0.89864584  0.08681382  0.96194025     0.36540
C320        C  0.89648177  0.10644454  0.00035814    -0.05640
C321        C  0.91581483  0.10589559  0.03949216    -0.32610
C322        C  0.93716517  0.08656453  0.04024861     0.36440
H323        H  0.92130630  0.05274648  0.93268085     0.16810
O324        O  0.87958900  0.08563658  0.92414084    -0.60110
H325        H  0.91475575  0.12084212  0.06925955     0.16830
O326        O  0.95595781  0.08718084  0.07854483    -0.60210
H327        H  0.97126827  0.09891369  0.06669602     0.43820
H328        H  0.86449854  0.07386497  0.93672421     0.43780
C329        C  0.59947937  0.40671988  0.49949675    -0.05280
C330        C  0.57682491  0.40502127  0.46681436    -0.32710
C331        C  0.55637282  0.42527165  0.46682448     0.36540
C332        C  0.55851302  0.44777267  0.49954479    -0.05640
C333        C  0.58108672  0.44950075  0.53224273    -0.32610
C334        C  0.60164262  0.42937643  0.53201949     0.36440
H335        H  0.57468200  0.38767343  0.44181876     0.16810
O336        O  0.53409015  0.42257970  0.43547914    -0.60110
H337        H  0.58312642  0.46687197  0.55723987     0.16830
O338        O  0.62409034  0.43247905  0.56281913    -0.60210
H339        H  0.63816201  0.44195615  0.54253931     0.43820
H340        H  0.51963155  0.41349880  0.45548078     0.43780
C341        C  0.73423081  0.26459433  0.29455220    -0.05280
C342        C  0.76164747  0.25526881  0.29349471    -0.32710
C343        C  0.77353937  0.24582933  0.24937321     0.36540
C344        C  0.75802443  0.24565828  0.20489637    -0.05640
C345        C  0.73063845  0.25503248  0.20589058    -0.32610
C346        C  0.71871975  0.26442204  0.25003058     0.36440
H347        H  0.77420935  0.25566134  0.32688441     0.16810
O348        O  0.80075036  0.23811850  0.24980649    -0.60110
H349        H  0.71811882  0.25465274  0.17244022     0.16830
O350        O  0.69149138  0.27206074  0.24953707    -0.60210
H351        H  0.69102557  0.29008039  0.23258452     0.43820
H352        H  0.80118041  0.22009896  0.26675959     0.43780
C353        C  0.75668680  0.24451524  0.79508092    -0.05280
C354        C  0.74900336  0.27222010  0.79209056    -0.32710
C355        C  0.73895611  0.28335763  0.74766776     0.36540
C356        C  0.73640338  0.26672112  0.70489940    -0.05640
C357        C  0.74399266  0.23898100  0.70795643    -0.32610
C358        C  0.75405943  0.22785241  0.75238557     0.36440
H359        H  0.75125469  0.28555426  0.82412159     0.16810
O360        O  0.73308943  0.31084509  0.74595279    -0.60110
H361        H  0.74174522  0.22563602  0.67594342     0.16830
O362        O  0.75993831  0.20036669  0.75418960    -0.60210
H363        H  0.77740690  0.19814634  0.73565699     0.43820
H364        H  0.71557360  0.31303792  0.76435697     0.43780
C365        C  0.89948250  0.90816067  0.00105060    -0.05280
C366        C  0.92011776  0.90825843  0.03795671    -0.32710
C367        C  0.94100405  0.92811574  0.03818142     0.36540
C368        C  0.94143839  0.94846141  0.00126436    -0.05640
C369        C  0.92084773  0.94840194  0.96439681    -0.32610
C370        C  0.89983939  0.92870736  0.96437391     0.36440
H371        H  0.92041477  0.89256705  0.06625954     0.16810
O372        O  0.96118763  0.92708347  0.07407233    -0.60110
H373        H  0.92067132  0.96408898  0.93604891     0.16830
O374        O  0.87943623  0.93022063  0.92897885    -0.60210
H375        H  0.86454614  0.94119966  0.94444020     0.43820
H376        H  0.97632168  0.91618821  0.05918373     0.43780
C377        C  0.60625541  0.60492695  0.49820405    -0.05280
C378        C  0.58613643  0.60518552  0.46038188    -0.32710
C379        C  0.56437270  0.58627631  0.46008833     0.36540
C380        C  0.56249159  0.56651738  0.49789210    -0.05640
C381        C  0.58259246  0.56620283  0.53563589    -0.32610
C382        C  0.60446754  0.58494387  0.53574244     0.36440
H383        H  0.58691377  0.62045433  0.43137757     0.16810
O384        O  0.54477578  0.58768303  0.42320847    -0.60110
H385        H  0.58168831  0.55095723  0.56470445     0.16830
O386        O  0.62427078  0.58304867  0.57215695    -0.60210
H387        H  0.63885295  0.57117852  0.55793796     0.43620
H388        H  0.52999167  0.59953551  0.43680025     0.43780
C389        C  0.74412811  0.74547743  0.70350017    -0.05280
C390        C  0.74764311  0.72744820  0.74351057    -0.32710
C391        C  0.75779874  0.73678645  0.78935288     0.36540
C392        C  0.76467429  0.76467905  0.79590950    -0.05640
C393        C  0.76115370  0.78270596  0.75588734    -0.32610
C394        C  0.75101792  0.77336240  0.71003902     0.36440
H395        H  0.74294339  0.70585013  0.73910522     0.16810
O396        O  0.76224236  0.71818485  0.82657083    -0.60110
H397        H  0.76583384  0.80430805  0.76027421     0.16830
O398        O  0.74659644  0.79195234  0.67279196    -0.60210
H399        H  0.76520429  0.79668423  0.66035073     0.43820
H400        H  0.74363968  0.71341489  0.83899034     0.43780
C401        C  0.74325651  0.74589069  0.29500140    -0.05280
C402        C  0.74615659  0.72775348  0.25476025    -0.32710
C403        C  0.75755048  0.73653434  0.20998427     0.36540
C404        C  0.76597852  0.76404021  0.20445546    -0.05640
C405        C  0.76307505  0.78217861  0.24469643    -0.32610
C406        C  0.75168145  0.77339730  0.28947292     0.36440
H407        H  0.74013520  0.70646090  0.25828486     0.16810
O408        O  0.76089405  0.71782425  0.17237530    -0.60110
H409        H  0.76909036  0.80347267  0.24117196     0.16830
O410        O  0.74832964  0.79210824  0.32707853    -0.60210
H411        H  0.72932208  0.79926523  0.32275569     0.43820
H412        H  0.77990275  0.71066807  0.17668320     0.43780
loop_ 
_geom_bond_atom_site_label_1 
_geom_bond_atom_site_label_2 
_geom_bond_distance 
_geom_bond_site_symmetry_2 
_ccdc_geom_bond_type 
N1            N2   1.321       .  A
N1            C5   1.344       .  A
N1           Cu9   2.070       .  S
N2            C3   1.344       .  A
N2           Cu8   2.071       .  S
C3            C4   1.386       .  A
C3            H6   1.082       .  S
C4            C5   1.386       .  A
C4          C389   1.482       .  S
C5            H7   1.081       .  S
Cu8          N11   2.072       .  S
Cu9          N19   2.070       .  S
Cu10         N12   2.075       .  S
Cu10         N18   2.075       .  S
N11          N12   1.322       .  A
N11          C15   1.344       .  A
N12          C13   1.345       .  A
C13          C14   1.386       .  A
C13          H16   1.082       .  S
C14          C15   1.386       .  A
C14         C377   1.483       .  S
C15          H17   1.081       .  S
N18          N19   1.321       .  A
N18          C22   1.345       .  A
N19          C20   1.344       .  A
C20          C21   1.385       .  A
C20          H23   1.081       .  S
C21          C22   1.386       .  A
C21         C401   1.483       .  S
C22          H24   1.082       .  S
N25          N26   1.321       .  A
N25          C29   1.344       .  A
N25         Cu33   2.070       .  S
N26          C27   1.345       .  A
N26         Cu32   2.075       .  S
C27          C28   1.386       .  A
C27          H30   1.082       .  S
C28          C29   1.385       .  A
C28         C404   1.483       .  S
C29          H31   1.081       .  S
Cu32         N35   2.075       .  S
Cu33         N43   2.070   1_554  S
Cu34         N36   2.071       .  S
Cu34         N42   2.071       .  S
N35          N36   1.322   1_554  A
N35          C39   1.345       .  A
N36          C37   1.344       .  A
C37          C38   1.385   1_556  A
C37          H40   1.081       .  S
C38          C39   1.386       .  A
C38         C365   1.482       .  S
C39          H41   1.082       .  S
N42          N43   1.321       .  A
N42          C46   1.344       .  A
N43          C44   1.344       .  A
C44          C45   1.386       .  A
C44          H47   1.081       .  S
C45          C46   1.386       .  A
C45         C392   1.483       .  S
C46          H48   1.082       .  S
N49          N50   1.321       .  A
N49          C53   1.345       .  A
N49         Cu57   2.078       .  S
N50          C51   1.344       .  A
N50         Cu56   2.071       .  S
C51          C52   1.387       .  A
C51          H54   1.081       .  S
C52          C53   1.388       .  A
C52         C356   1.486       .  S
C53          H55   1.082       .  S
Cu56         N59   2.071       .  S
Cu57         N67   2.078       .  S
Cu58         N60   2.072       .  S
Cu58         N66   2.073       .  S
N59          N60   1.321       .  A
N59          C63   1.344       .  A
N60          C61   1.345       .  A
C61          C62   1.385       .  A
C61          H64   1.082       .  S
C62          C63   1.385       .  A
C62         C329   1.479       .  S
C63          H65   1.082       .  S
N66          N67   1.321       .  A
N66          C70   1.344       .  A
N67          C68   1.345       .  A
C68          C69   1.388       .  A
C68          H71   1.082       .  S
C69          C70   1.387       .  A
C69         C341   1.487       .  S
C70          H72   1.081       .  S
N73          N74   1.321       .  A
N73          C77   1.345       .  A
N73         Cu81   2.077       .  S
N74          C75   1.344       .  A
N74         Cu80   2.073       .  S
C75          C76   1.387       .  A
C75          H78   1.081       .  S
C76          C77   1.387       .  A
C76         C344   1.485       .  S
C77          H79   1.082       .  S
Cu80         N83   2.072       .  S
Cu81         N91   2.077   1_554  S
Cu82         N84   2.073       .  S
Cu82         N90   2.073       .  S
N83          N84   1.321   1_554  A
N83          C87   1.345       .  A
N84          C85   1.344       .  A
C85          C86   1.387   1_556  A
C85          H88   1.081       .  S
C86          C87   1.387       .  A
C86         C320   1.485       .  S
C87          H89   1.082       .  S
N90          N91   1.321       .  A
N90          C94   1.345       .  A
N91          C92   1.345       .  A
C92          C93   1.387       .  A
C92          H95   1.082       .  S
C93          C94   1.387       .  A
C93         C353   1.485       .  S
C94          H96   1.081       .  S
N97          N98   1.322       .  A
N97         C101   1.344       .  A
N97        Cu105   2.074       .  S
N98          C99   1.344       .  A
N98        Cu104   2.073       .  S
C99         C100   1.386       .  A
C99         H102   1.081       .  S
C100        C101   1.386       .  A
C100        C308   1.482       .  S
C101        H103   1.082       .  S
Cu104       N107   2.073       .  S
Cu105       N115   2.074       .  S
Cu106       N108   2.070       .  S
Cu106       N114   2.070       .  S
N107        N108   1.321       .  A
N107        C111   1.345       .  A
N108        C109   1.344       .  A
C109        C110   1.385       .  A
C109        H112   1.081       .  S
C110        C111   1.386       .  A
C110        C284   1.482       .  S
C111        H113   1.082       .  S
N114        N115   1.321       .  A
N114        C118   1.344       .  A
N115        C116   1.345       .  A
C116        C117   1.386       .  A
C116        H119   1.082       .  S
C117        C118   1.386       .  A
C117        C293   1.483       .  S
C118        H120   1.081       .  S
N121        N122   1.321       .  A
N121        C125   1.345       .  A
N121       Cu129   2.074   1_554  S
N122        C123   1.344       .  A
N122       Cu128   2.071       .  S
C123        C124   1.385       .  A
C123        H126   1.081       .  S
C124        C125   1.386       .  A
C124        C296   1.482       .  S
C125        H127   1.082       .  S
Cu128       N131   2.071       .  S
Cu129       N139   2.074       .  S
Cu130       N132   2.073       .  S
Cu130       N138   2.073       .  S
N131        N132   1.321   1_554  A
N131        C135   1.344       .  A
N132        C133   1.345       .  A
C133        C134   1.387       .  A
C133        H136   1.082       .  S
C134        C135   1.388   1_556  A
C134        C269   1.486       .  S
C135        H137   1.080       .  S
N138        N139   1.322       .  A
N138        C142   1.344       .  A
N139        C140   1.345       .  A
C140        C141   1.385       .  A
C140        H143   1.082       .  S
C141        C142   1.386       .  A
C141        C305   1.482       .  S
C142        H144   1.081       .  S
O145       Cu153   2.011   1_665  S
O145        C155   1.278       .  A
O146       Cu153   2.004       .  S
O146        C156   1.276   1_554  A
O147       Cu153   2.014   1_655  S
O147        C157   1.279       .  A
O148       Cu153   2.002   1_565  S
O148        C158   1.277   1_554  A
O149       Cu154   2.014   1_565  S
O149        C158   1.279       .  A
O150       Cu154   2.002   1_655  S
O150        C157   1.277   1_556  A
O151       Cu154   2.011       .  S
O151        C156   1.278       .  A
O152       Cu154   2.004   1_665  S
O152        C155   1.277   1_556  A
Cu153      Cu154   2.374   1_554  S
C155        C368   1.477       .  S
C156        C257   1.469       .  S
C157        C317   1.479       .  S
C158        C272   1.479       .  S
O159       Cu167   2.013       .  S
O159        C169   1.278       .  A
O160       Cu167   2.001       .  S
O160        C170   1.277       .  A
O161       Cu167   2.007       .  S
O161        C171   1.278       .  A
O162       Cu167   2.007       .  S
O162        C172   1.278       .  A
O163       Cu168   2.006       .  S
O163        C172   1.277       .  A
O164       Cu168   2.007       .  S
O164        C171   1.278       .  A
O165       Cu168   2.015       .  S
O165        C170   1.279       .  A
O166       Cu168   2.003       .  S
O166        C169   1.277       .  A
Cu167      Cu168   2.374       .  S
C169        C380   1.478       .  S
C170        C248   1.479       .  S
C171        C281   1.475       .  S
C172        C332   1.472       .  S
N173        N174   1.322       .  A
N173        C177   1.344       .  A
N173       Cu181   2.072       .  S
N174        C175   1.344       .  A
N174       Cu180   2.072       .  S
C175        C176   1.385       .  A
C175        H178   1.082       .  S
C176        C177   1.385       .  A
C176        C224   1.480       .  S
C177        H179   1.082       .  S
Cu180       N183   2.072       .  S
Cu181       N191   2.072   1_556  S
Cu182       N184   2.073       .  S
Cu182       N190   2.073       .  S
N183        N184   1.323   1_556  A
N183        C187   1.345       .  A
N184        C185   1.345       .  A
C185        C186   1.382   1_554  A
C185        H188   1.082       .  S
C186        C187   1.382       .  A
C186        C260   1.473       .  S
C187        H189   1.082       .  S
N190        N191   1.322       .  A
N190        C194   1.345       .  A
N191        C192   1.344       .  A
C192        C193   1.385       .  A
C192        H195   1.082       .  S
C193        C194   1.385       .  A
C193        C233   1.481       .  S
C194        H196   1.082       .  S
N197        N198   1.321       .  A
N197        C201   1.345       .  A
N197       Cu205   2.072       .  S
N198        C199   1.344       .  A
N198       Cu204   2.070       .  S
C199        C200   1.385       .  A
C199        H202   1.082       .  S
C200        C201   1.385       .  A
C200        C221   1.481       .  S
C201        H203   1.082       .  S
Cu204       N207   2.071       .  S
Cu205       N215   2.072       .  S
Cu206       N208   2.074       .  S
Cu206       N214   2.074       .  S
N207        N208   1.321       .  A
N207        C211   1.344       .  A
N208        C209   1.344       .  A
C209        C210   1.388       .  A
C209        H212   1.082       .  S
C210        C211   1.387       .  A
C210        C245   1.486       .  S
C211        H213   1.080       .  S
N214        N215   1.322       .  A
N214        C218   1.345       .  A
N215        C216   1.344       .  A
C216        C217   1.386       .  A
C216        H219   1.081       .  S
C217        C218   1.386       .  A
C217        C236   1.482       .  S
C218        H220   1.082       .  S
C221        C222   1.404       .  A
C221        C226   1.410       .  A
C222        C223   1.400       .  A
C222        H227   1.083       .  S
C223        C224   1.410       .  A
C223        O228   1.371       .  S
C224        C225   1.404       .  A
C225        C226   1.399       .  A
C225        H229   1.083       .  S
C226        O230   1.371       .  S
O228        H232   0.992       .  S
O230        H231   0.992       .  S
C233        C234   1.404       .  A
C233        C238   1.410       .  A
C234        C235   1.400       .  A
C234        H239   1.083       .  S
C235        C236   1.411       .  A
C235        O240   1.371       .  S
C236        C237   1.404       .  A
C237        C238   1.399       .  A
C237        H241   1.083       .  S
C238        O242   1.371       .  S
O240        H244   0.992       .  S
O242        H243   0.992       .  S
C245        C246   1.405       .  A
C245        C250   1.412       .  A
C246        C247   1.399       .  A
C246        H251   1.083       .  S
C247        C248   1.409       .  A
C247        O252   1.372       .  S
C248        C249   1.403       .  A
C249        C250   1.402       .  A
C249        H253   1.084       .  S
C250        O254   1.371       .  S
O252        H256   0.992       .  S
O254        H255   0.992       .  S
C257        C258   1.402   1_556  A
C257        C262   1.407       .  A
C258        C259   1.399       .  A
C258        H263   1.084       .  S
C259        C260   1.408   1_554  A
C259        O264   1.372       .  S
C260        C261   1.403       .  A
C261        C262   1.400       .  A
C261        H265   1.084       .  S
C262        O266   1.372       .  S
O264        H268   0.992       .  S
O266        H267   0.993       .  S
C269        C270   1.407       .  A
C269        C274   1.412   1_556  A
C270        C271   1.400       .  A
C270        H275   1.083       .  S
C271        C272   1.409       .  A
C271        O276   1.372       .  S
C272        C273   1.403   1_556  A
C273        C274   1.400       .  A
C273        H277   1.084       .  S
C274        O278   1.371       .  S
O276        H280   0.992       .  S
O278        H279   0.992       .  S
C281        C282   1.402       .  A
C281        C286   1.408       .  A
C282        C283   1.399       .  A
C282        H287   1.084       .  S
C283        C284   1.411       .  A
C283        O288   1.371       .  S
C284        C285   1.405       .  A
C285        C286   1.400       .  A
C285        H289   1.083       .  S
C286        O290   1.372       .  S
O288        H292   0.992       .  S
O290        H291   0.992       .  S
C293        C294   1.405       .  A
C293        C298   1.411       .  A
C294        C295   1.400       .  A
C294        H299   1.083       .  S
C295        C296   1.410       .  A
C295        O300   1.371       .  S
C296        C297   1.404       .  A
C297        C298   1.400       .  A
C297        H301   1.083       .  S
C298        O302   1.371       .  S
O300        H304   0.992       .  S
O302        H303   0.992       .  S
C305        C306   1.404       .  A
C305        C310   1.410       .  A
C306        C307   1.400       .  A
C306        H311   1.083       .  S
C307        C308   1.410       .  A
C307        O312   1.371       .  S
C308        C309   1.404       .  A
C309        C310   1.399       .  A
C309        H313   1.083       .  S
C310        O314   1.371       .  S
O312        H316   0.992       .  S
O314        H315   0.992       .  S
C317        C318   1.404   1_554  A
C317        C322   1.409       .  A
C318        C319   1.399       .  A
C318        H323   1.084       .  S
C319        C320   1.411   1_556  A
C319        O324   1.371       .  S
C320        C321   1.406       .  A
C321        C322   1.400       .  A
C321        H325   1.083       .  S
C322        O326   1.372       .  S
O324        H328   0.992       .  S
O326        H327   0.992       .  S
C329        C330   1.405       .  A
C329        C334   1.410       .  A
C330        C331   1.400       .  A
C330        H335   1.083       .  S
C331        C332   1.408       .  A
C331        O336   1.372       .  S
C332        C333   1.402       .  A
C333        C334   1.399       .  A
C333        H337   1.084       .  S
C334        O338   1.371       .  S
O336        H340   0.992       .  S
O338        H339   0.992       .  S
C341        C342   1.405       .  A
C341        C346   1.411       .  A
C342        C343   1.401       .  A
C342        H347   1.083       .  S
C343        C344   1.410       .  A
C343        O348   1.372       .  S
C344        C345   1.404       .  A
C345        C346   1.401       .  A
C345        H349   1.083       .  S
C346        O350   1.371       .  S
O348        H352   0.993       .  S
O350        H351   0.993       .  S
C353        C354   1.404       .  A
C353        C358   1.410       .  A
C354        C355   1.401       .  A
C354        H359   1.083       .  S
C355        C356   1.411       .  A
C355        O360   1.371       .  S
C356        C357   1.405       .  A
C357        C358   1.402       .  A
C357        H361   1.083       .  S
C358        O362   1.372       .  S
O360        H364   0.992       .  S
O362        H363   0.992       .  S
C365        C366   1.405       .  A
C365        C370   1.411   1_554  A
C366        C367   1.400       .  A
C366        H371   1.083       .  S
C367        C368   1.409       .  A
C367        O372   1.372       .  S
C368        C369   1.403   1_554  A
C369        C370   1.399       .  A
C369        H373   1.084       .  S
C370        O374   1.371       .  S
O372        H376   0.992       .  S
O374        H375   0.992       .  S
C377        C378   1.405       .  A
C377        C382   1.411       .  A
C378        C379   1.400       .  A
C378        H383   1.083       .  S
C379        C380   1.409       .  A
C379        O384   1.372       .  S
C380        C381   1.403       .  A
C381        C382   1.399       .  A
C381        H385   1.084       .  S
C382        O386   1.371       .  S
O384        H388   0.992       .  S
O386        H387   0.992       .  S
C389        C390   1.404       .  A
C389        C394   1.410       .  A
C390        C391   1.400       .  A
C390        H395   1.083       .  S
C391        C392   1.410       .  A
C391        O396   1.372       .  S
C392        C393   1.404       .  A
C393        C394   1.400       .  A
C393        H397   1.083       .  S
C394        O398   1.372       .  S
O396        H400   0.992       .  S
O398        H399   0.992       .  S
C401        C402   1.404       .  A
C401        C406   1.411       .  A
C402        C403   1.400       .  A
C402        H407   1.083       .  S
C403        C404   1.411       .  A
C403        O408   1.371       .  S
C404        C405   1.404       .  A
C405        C406   1.400       .  A
C405        H409   1.083       .  S
C406        O410   1.371       .  S
O408        H412   0.992       .  S
O410        H411   0.992       .  S
