geometry optimzed in LAMMPS
_audit_creation_date              2020-11-30 
_audit_creation_method            'lammps2cif' 
_symmetry_space_group_name_H-M    'P1' 
_symmetry_Int_Tables_number       1 
_symmetry_cell_setting            triclinic 
loop_ 
_symmetry_equiv_pos_as_xyz 
  x,y,z 
_cell_length_a                    30.40423131 
_cell_length_b                    30.39237911994831 
_cell_length_c                    73.28715566017335 
_cell_angle_alpha                 90.35302315347833 
_cell_angle_beta                  89.96026148228147 
_cell_angle_gamma                 120.22713136885822 
loop_ 
_atom_site_label 
_atom_site_type_symbol 
_atom_site_fract_x 
_atom_site_fract_y 
_atom_site_fract_z 
_atom_site_charge 
C1          C  0.47699913  0.54267823  0.03892286     0.85600
C2          C  0.43098563  0.50122379  0.04913292    -0.54700
C3          C  0.44141375  0.47387670  0.06102264     0.08500
C4          C  0.49891784  0.49046244  0.06178946     0.19400
C5          C  0.51258489  0.57429559  0.05513104    -0.55400
C6          C  0.52625038  0.54756592  0.06686927     0.08600
C7          C  0.50384101  0.51594859  0.03022268    -0.54900
C8          C  0.51556650  0.48873966  0.04212172     0.09200
H9          H  0.39316853  0.49653918  0.04811821     0.13700
H10         H  0.50819385  0.46691714  0.07044215    -0.00600
H11         H  0.52248462  0.61295115  0.05826197     0.14000
H12         H  0.51378906  0.51938152  0.01586071     0.13800
C13         C  0.06243471  0.52759552  0.04300287     0.85600
C14         C  0.05836953  0.55931273  0.05861135    -0.54700
C15         C  0.01636313  0.53417307  0.06953714     0.08500
C16         C  0.98184667  0.47788056  0.06379224     0.19400
C17         C  0.05919542  0.48087929  0.05278463    -0.55400
C18         C  0.01770360  0.45544390  0.06406447     0.08600
C19         C  0.01080292  0.50326029  0.03277498    -0.54900
C20         C  0.96864309  0.47819731  0.04347318     0.09200
H21         H  0.08783437  0.59849784  0.06112199     0.13700
H22         H  0.94725715  0.45700283  0.07227388    -0.00600
H23         H  0.08728433  0.46914990  0.05120543     0.14000
H24         H  0.00759371  0.50349921  0.01804916     0.13800
C25         C  0.46201523  0.94708724  0.04340540     0.85600
C26         C  0.49596365  0.94259273  0.05804381    -0.54700
C27         C  0.51556740  0.98080032  0.07070267     0.08500
C28         C  0.50099591  0.02194970  0.06724835     0.19400
C29         C  0.42251297  0.95485555  0.05388800    -0.55400
C30         C  0.44191809  0.99252094  0.06695644     0.08600
C31         C  0.49846781  0.99977529  0.03512943    -0.54900
C32         C  0.51701738  0.03962231  0.04721000     0.09200
H33         H  0.50477757  0.91217011  0.05825452     0.13700
H34         H  0.51876727  0.05282786  0.07755187    -0.00600
H35         H  0.38230526  0.93260104  0.05066730     0.14000
H36         H  0.50867493  0.00600395  0.02083467     0.13800
O37         O  0.41081185  0.66898618  0.98257917    -0.82700
C38         C  0.23056318  0.61585540  0.94436422     0.96600
O39         O  0.25951904  0.59794309  0.94719515    -0.71800
O40         O  0.34855845  0.60227603  0.95353295    -0.75400
Al41       Al  0.29994362  0.60879343  0.96865738     1.49000
C42         C  0.38766140  0.63304766  0.94457804     0.91900
O43         O  0.40499310  0.76681087  0.95214251    -0.81600
O44         O  0.34169720  0.76631612  0.98114514    -0.75200
Al45       Al  0.39933069  0.71334709  0.96744249     1.90100
O46         O  0.32699021  0.74325579  0.94413581    -0.74300
O47         O  0.25819405  0.67810426  0.98824896    -0.74100
O48         O  0.24006668  0.65728641  0.95187057    -0.79800
O49         O  0.24550477  0.60092185  0.98413842    -0.78000
O50         O  0.33121999  0.67665590  0.96746840    -1.14100
O51         O  0.33503299  0.60899672  0.99044595    -0.73300
C52         C  0.38278032  0.63055534  0.99210887     0.97400
C53         C  0.37438031  0.77255827  0.94222173     0.93800
Al54       Al  0.29510703  0.70842457  0.96638031     1.55600
O55         O  0.40521313  0.68051300  0.94601726    -0.77900
C56         C  0.23475182  0.63127719  0.99209520     0.98000
C57         C  0.37981415  0.77570439  0.99093987     0.92800
O58         O  0.40178411  0.75010296  0.98898470    -0.83300
C59         C  0.28488106  0.32208536  0.14875585     0.79300
N60         N  0.30277590  0.35556913  0.13459938    -0.79000
C61         C  0.31981291  0.34414111  0.11901519     0.81700
N62         N  0.32055428  0.29989667  0.11807415    -0.78900
C63         C  0.30172757  0.26628386  0.13189649     0.81800
N64         N  0.28337820  0.27713241  0.14690460    -0.80700
C65         C  0.33379070  0.02906998  0.12576307     0.79300
N66         N  0.32596377  0.06887909  0.12440900    -0.79000
C67         C  0.30905800  0.08383638  0.13879101     0.81700
N68         N  0.29860779  0.05827762  0.15470306    -0.78900
C69         C  0.30278199  0.01601895  0.15613055     0.81800
N70         N  0.32124999  0.00186906  0.14159100    -0.80700
C71         C  0.98413708  0.63557933  0.13138354     0.79300
N72         N  0.93811508  0.63244011  0.13177198    -0.79000
C73         C  0.92529345  0.65227316  0.14600312     0.81700
N74         N  0.95872137  0.67584939  0.15986078    -0.78900
C75         C  0.00487717  0.67905267  0.15962472     0.81800
N76         N  0.01762807  0.65884531  0.14533582    -0.80700
C77         C  0.68331620  0.67570760  0.15901529     0.79300
N78         N  0.72435398  0.66937059  0.15898935    -0.79000
C79         C  0.73687103  0.65203898  0.14399313     0.81700
N80         N  0.70725210  0.63911788  0.12887571    -0.78900
C81         C  0.66518768  0.64382521  0.12875827     0.81800
N82         N  0.65332656  0.66242565  0.14380534    -0.80700
C83         C  0.60775846  0.79644569  0.24593801     0.85600
C84         C  0.60566097  0.83101256  0.23097237    -0.54700
C85         C  0.64565627  0.85084390  0.21915566     0.08500
C86         C  0.68341381  0.83203406  0.22263706     0.19400
C87         C  0.61113939  0.75522376  0.23448642    -0.55400
C88         C  0.65017438  0.77325843  0.22211380     0.08600
C89         C  0.66064416  0.82778174  0.25474110    -0.54900
C90         C  0.70065763  0.84550598  0.24280196     0.09200
H91         H  0.57427188  0.83802099  0.22931259     0.13700
H92         H  0.71497103  0.84777937  0.21264097    -0.00600
H93         H  0.58384493  0.71509925  0.23568290     0.14000
H94         H  0.66602090  0.83318939  0.26940277     0.13800
C95         C  0.18563125  0.38993173  0.24150754     0.85600
C96         C  0.22399376  0.38857008  0.22808565    -0.54700
C97         C  0.20503164  0.34551305  0.21773246     0.08500
C98         C  0.14861898  0.30704909  0.22176247     0.19400
C99         C  0.14246679  0.38190597  0.22818272    -0.55400
C100        C  0.12206169  0.33784907  0.21769864     0.08600
C101        C  0.16385295  0.34106875  0.25265217    -0.54900
C102        C  0.14447579  0.29794731  0.24244365     0.09200
H103        H  0.26066056  0.42172182  0.22504936     0.13700
H104        H  0.13334057  0.27002229  0.21490567    -0.00600
H105        H  0.13305502  0.41146448  0.22597449     0.14000
H106        H  0.16335819  0.34061607  0.26747521     0.13800
C107        C  0.20801021  0.81864437  0.24260719     0.85600
C108        C  0.16995263  0.77952994  0.22873621    -0.54700
C109        C  0.14769555  0.79767003  0.21726193     0.08500
C110        C  0.16359120  0.85356112  0.22119688     0.19400
C111        C  0.24498569  0.86565125  0.23140227    -0.55400
C112        C  0.22244554  0.88360954  0.21968192     0.08600
C113        C  0.17458742  0.83581532  0.25274977    -0.54900
C114        C  0.15266975  0.85584253  0.24176259     0.09200
H115        H  0.15923335  0.73975169  0.22843642     0.13700
H116        H  0.14359628  0.86653808  0.21199489    -0.00600
H117        H  0.28580522  0.88368765  0.23320045     0.14000
H118        H  0.16955715  0.83376854  0.26743859     0.13800
O119        O  0.39388099  0.66420783  0.29356871    -0.82700
C120        C  0.26931930  0.70882224  0.33992040     0.96600
O121        O  0.31317880  0.73979071  0.33378142    -0.71800
O122        O  0.39568255  0.72979414  0.34053691    -0.75400
Al123      Al  0.36225669  0.73326280  0.31866740     1.49000
C124        C  0.42426072  0.71065225  0.34063001     0.91900
O125        O  0.32127261  0.58986950  0.33566814    -0.81600
O126        O  0.25560234  0.60091226  0.29130949    -0.75200
Al127      Al  0.35625588  0.62921960  0.31480057     1.90100
O128        O  0.24598604  0.57646539  0.32821366    -0.74300
O129        O  0.25572418  0.68484001  0.29923369    -0.74100
O130        O  0.24799422  0.66233790  0.33564211    -0.79800
O131        O  0.33530931  0.74644551  0.29728691    -0.78000
O132        O  0.32509420  0.66566113  0.31587138    -1.14100
O133        O  0.41864938  0.74112311  0.30376821    -0.73300
C134        C  0.42500225  0.71159561  0.29316191     0.97400
C135        C  0.27334823  0.56424939  0.33743699     0.93800
Al136      Al  0.25748296  0.63397414  0.31382331     1.55600
O137        O  0.41288165  0.67332498  0.33017046    -0.77900
C138        C  0.28929983  0.72629758  0.29246472     0.98000
C139        C  0.27305894  0.57159468  0.28898001     0.92800
O140        O  0.30854409  0.57624341  0.29911766    -0.83300
C141        C  0.97370114  0.32016227  0.12534285     0.79300
N142        N  0.00518496  0.33914620  0.14011752    -0.79000
C143        C  0.99129298  0.31509843  0.15648875     0.81700
N144        N  0.94569904  0.27216188  0.15824533    -0.78900
C145        C  0.91394109  0.25341550  0.14383061     0.81800
N146        N  0.92815670  0.27706587  0.12752215    -0.80700
C147        C  0.66815224  0.98872143  0.16076870     0.79300
N148        N  0.63538101  0.97595839  0.14643761    -0.79000
C149        C  0.64749912  0.00786078  0.13197293     0.81700
N150        N  0.69234781  0.05247114  0.13196295    -0.78900
C151        C  0.72488024  0.06533126  0.14626145     0.81800
N152        N  0.71276219  0.03339545  0.16056593    -0.80700
C153        C  0.85272137  0.72429520  0.57678487     0.85600
C154        C  0.88578685  0.71650624  0.56234132    -0.54700
C155        C  0.85971781  0.67354523  0.55140923     0.08500
C156        C  0.80222151  0.64351746  0.55591898     0.19400
C157        C  0.81252717  0.72563604  0.56450288    -0.55400
C158        C  0.78587404  0.68394115  0.55369733     0.08600
C159        C  0.82560241  0.67382594  0.58709071    -0.54900
C160        C  0.79903086  0.63136308  0.57648631     0.09200
H161        H  0.92540280  0.74439904  0.55993529     0.13700
H162        H  0.77902794  0.60835973  0.54794549    -0.00600
H163        H  0.80896079  0.75926364  0.56307810     0.14000
H164        H  0.82809357  0.67194483  0.60182151     0.13800
C165        C  0.85122743  0.13737530  0.57870781     0.85600
C166        C  0.80860098  0.09895883  0.56575009    -0.54700
C167        C  0.78801200  0.11951111  0.55441869     0.08500
C168        C  0.81097955  0.17699551  0.55772295     0.19400
C169        C  0.88885978  0.17837056  0.56528984    -0.55400
C170        C  0.86807756  0.19857753  0.55379066     0.08600
C171        C  0.82745357  0.16346400  0.58926485    -0.54900
C172        C  0.80645493  0.18457407  0.57861850     0.09200
H173        H  0.79850795  0.05958063  0.56444886     0.13700
H174        H  0.79291991  0.19238827  0.54888849    -0.00600
H175        H  0.92863713  0.18933660  0.56475018     0.14000
H176        H  0.82735523  0.16528811  0.60407525     0.13800
C177        C  0.27997424  0.14270793  0.57434343     0.85600
C178        C  0.28458587  0.18548585  0.56198754    -0.54700
C179        C  0.32784645  0.20850740  0.55167323     0.08500
C180        C  0.36460358  0.18816970  0.55532207     0.19400
C181        C  0.28787026  0.10722396  0.56119785    -0.55400
C182        C  0.33189877  0.13049265  0.55093405     0.08600
C183        C  0.32954068  0.16659910  0.58580863    -0.54900
C184        C  0.37366419  0.19177157  0.57617032     0.09200
H185        H  0.25401248  0.19380288  0.56036359     0.13700
H186        H  0.40121096  0.20884923  0.54806935    -0.00600
H187        H  0.26028274  0.06703345  0.55982708     0.14000
H188        H  0.33029531  0.16235803  0.60046539     0.13800
O189        O  0.07183969  0.00135083  0.62564519    -0.82700
C190        C  0.95049551  0.05633384  0.67068032     0.96600
O191        O  0.98659600  0.08400819  0.65993474    -0.71800
O192        O  0.07340585  0.08503713  0.66748383    -0.75400
Al193      Al  0.03496559  0.07399469  0.64556497     1.49000
C194        C  0.10127883  0.06616170  0.67082068     0.91900
O195        O  0.00903311  0.94123885  0.67103392    -0.81600
O196        O  0.92928257  0.93255406  0.62782734    -0.75200
Al197      Al  0.03790549  0.97409720  0.64843316     1.90100
O198        O  0.93013359  0.91895439  0.66490927    -0.74300
O199        O  0.92434162  0.01655884  0.63345868    -0.74100
O200        O  0.93368631  0.00875260  0.67052196    -0.79800
O201        O  0.00023430  0.07053772  0.62335325    -0.78000
O202        O  0.00278110  0.00664474  0.64778976    -1.14100
O203        O  0.09029788  0.07978274  0.63069626    -0.73300
C204        C  0.09844845  0.04815479  0.62220196     0.97400
C205        C  0.96203325  0.91202761  0.67363189     0.93800
Al206      Al  0.93521311  0.97208739  0.64910138     1.55600
O207        O  0.09389099  0.02629983  0.66245633    -0.77900
C208        C  0.95258325  0.05168223  0.62256250     0.98000
C209        C  0.94931721  0.90508604  0.62580484     0.92800
O210        O  0.98880571  0.91526405  0.63482889    -0.83300
C211        C  0.34337034  0.00745514  0.49210657     0.79300
N212        N  0.38684231  0.00545308  0.49137092    -0.79000
C213        C  0.39542872  0.98198484  0.47724598     0.81700
N214        N  0.36085084  0.96086545  0.46362368    -0.78900
C215        C  0.31721239  0.96260159  0.46412414     0.81800
N216        N  0.30832816  0.98619174  0.47838182    -0.80700
C217        C  0.66975154  0.02841922  0.48741750     0.79300
N218        N  0.62080291  0.01791734  0.48775120    -0.79000
C219        C  0.58944573  0.99550394  0.47334787     0.81700
N220        N  0.60624249  0.98188714  0.45851225    -0.78900
C221        C  0.65455879  0.99087375  0.45791687     0.81800
N222        N  0.68653659  0.01427421  0.47237516    -0.80700
C223        C  0.97072119  0.32499324  0.49010946     0.79300
N224        N  0.97704384  0.37238572  0.49120892    -0.79000
C225        C  0.99967132  0.40616619  0.47761959     0.81700
N226        N  0.01769865  0.39351894  0.46288842    -0.78900
C227        C  0.01313430  0.34693295  0.46170785     0.81800
N228        N  0.98933731  0.31228739  0.47527160    -0.80700
C229        C  0.96982487  0.64398245  0.49196938     0.79300
N230        N  0.98068694  0.67040412  0.47609001    -0.79000
C231        C  0.00429214  0.66070962  0.46215459     0.81700
N232        N  0.01607742  0.62361196  0.46444657    -0.78900
C233        C  0.00378864  0.59594149  0.47993301     0.81800
N234        N  0.98034908  0.60591644  0.49365395    -0.80700
C235        C  0.66718324  0.66270999  0.48888866     0.79300
N236        N  0.62342726  0.61721816  0.48750275    -0.79000
C237        C  0.59474832  0.60339924  0.47214367     0.81700
N238        N  0.61064431  0.63514696  0.45766918    -0.78900
C239        C  0.65521971  0.68022589  0.45836196     0.81800
N240        N  0.68299854  0.69390210  0.47410305    -0.80700
C241        C  0.35688874  0.33019126  0.48629951     0.79300
N242        N  0.40044075  0.37575371  0.48506667    -0.79000
C243        C  0.41074748  0.40610507  0.47036850     0.81700
N244        N  0.37720648  0.39004763  0.45628266    -0.78900
C245        C  0.33381984  0.34384057  0.45679180     0.81800
N246        N  0.32377899  0.31449094  0.47195393    -0.80700
C247        C  0.12481549  0.85588983  0.37735068     0.85600
C248        C  0.08153461  0.81296036  0.38827980    -0.54700
C249        C  0.09556506  0.78526731  0.39873728     0.08500
C250        C  0.15276791  0.80267704  0.39747145     0.19400
C251        C  0.16288696  0.88623537  0.39296210    -0.55400
C252        C  0.17904541  0.85929545  0.40326173     0.08600
C253        C  0.15039568  0.83059062  0.36674542    -0.54900
C254        C  0.16472787  0.80226907  0.37699075     0.09200
H255        H  0.04340704  0.80758689  0.38888723     0.13700
H256        H  0.16350867  0.77894344  0.40553938    -0.00600
H257        H  0.17158540  0.92392405  0.39760718     0.14000
H258        H  0.15666283  0.83503703  0.35210592     0.13800
C259        C  0.13073169  0.27531367  0.37434323     0.85600
C260        C  0.17244828  0.27443108  0.38578284    -0.54700
C261        C  0.19861261  0.31525678  0.39698717     0.08500
C262        C  0.18027734  0.35474526  0.39588551     0.19400
C263        C  0.09779490  0.28088223  0.38949314    -0.55400
C264        C  0.12299230  0.32346091  0.40058841     0.08600
C265        C  0.15671933  0.32685216  0.36455928    -0.54900
C266        C  0.18232551  0.36864651  0.37556067     0.09200
H267        H  0.17862780  0.24218603  0.38588957     0.13700
H268        H  0.20219275  0.38941288  0.40412276    -0.00600
H269        H  0.05963620  0.25131301  0.39282163     0.14000
H270        H  0.15403206  0.32994689  0.34988658     0.13800
C271        C  0.72408473  0.86762736  0.37168248     0.85600
C272        C  0.71884324  0.90182163  0.38613500    -0.54700
C273        C  0.67687456  0.87813171  0.39730226     0.08500
C274        C  0.64476116  0.82039878  0.39296480     0.19400
C275        C  0.72269560  0.82395677  0.38267371    -0.55400
C276        C  0.68322444  0.80103717  0.39453175     0.08600
C277        C  0.67243997  0.84013142  0.36148096    -0.54900
C278        C  0.63078407  0.81627792  0.37250112     0.09200
H279        H  0.74818667  0.94138415  0.38790108     0.13700
H280        H  0.60971372  0.79846965  0.40090092    -0.00600
H281        H  0.75148570  0.81297869  0.38185601     0.14000
H282        H  0.66875702  0.83762115  0.34674359     0.13800
O283        O  0.01206443  0.09056786  0.31360927    -0.82700
C284        C  0.05456341  0.95366432  0.27896434     0.96600
O285        O  0.07402473  0.00139564  0.28074561    -0.71800
O286        O  0.07760053  0.09003497  0.28730118    -0.75400
Al287      Al  0.06685063  0.03363587  0.30211704     1.49000
C288        C  0.05017825  0.09813942  0.27652856     0.91900
O289        O  0.91274174  0.98491069  0.28272315    -0.81600
O290        O  0.90938241  0.92625901  0.31541345    -0.75200
Al291      Al  0.96621735  0.03403758  0.29810653     1.90100
O292        O  0.92933871  0.92317051  0.27913668    -0.74300
O293        O  0.99513119  0.93026161  0.32419970    -0.74100
O294        O  0.01475717  0.92354560  0.28772966    -0.79800
O295        O  0.07351987  0.98641767  0.31751303    -0.78000
O296        O  0.99907713  0.99956804  0.30056179    -1.14100
O297        O  0.06654219  0.06897399  0.32368260    -0.73300
C298        C  0.04721748  0.09729356  0.32457035     0.97400
C299        C  0.90236476  0.94284329  0.27558164     0.93800
Al300      Al  0.96521136  0.93185229  0.30149941     1.55600
O301        O  0.00280603  0.06774593  0.27655784    -0.77900
C302        C  0.04216515  0.94936319  0.32699573     0.98000
C303        C  0.89957570  0.95808999  0.32267837     0.92800
O304        O  0.92546301  0.00483392  0.31902433    -0.83300
C305        C  0.81207805  0.62426744  0.71145146     0.85600
C306        C  0.85233640  0.62517216  0.72433164    -0.54700
C307        C  0.87717130  0.66755939  0.73494244     0.08500
C308        C  0.85926834  0.70630884  0.73188158     0.19400
C309        C  0.77753468  0.63149314  0.72536800    -0.55400
C310        C  0.80188750  0.67470973  0.73625669     0.08600
C311        C  0.83912608  0.67417080  0.70071035    -0.54900
C312        C  0.86376113  0.71711293  0.71120193     0.09200
H313        H  0.85594035  0.59199996  0.72689965     0.13700
H314        H  0.88078370  0.74239238  0.73948805    -0.00600
H315        H  0.73832486  0.60205199  0.72763803     0.14000
H316        H  0.83873848  0.67534733  0.68590963     0.13800
C317        C  0.38576123  0.19577553  0.71171677     0.85600
C318        C  0.38524465  0.23544039  0.72474546    -0.54700
C319        C  0.34228212  0.21852155  0.73478403     0.08500
C320        C  0.30262912  0.16212723  0.73106899     0.19400
C321        C  0.37616605  0.15283950  0.72531269    -0.55400
C322        C  0.33221023  0.13442613  0.73564805     0.08600
C323        C  0.33684865  0.17429919  0.70033347    -0.54900
C324        C  0.29335597  0.15679203  0.71027655     0.09200
H325        H  0.41891764  0.27165491  0.72795373     0.13700
H326        H  0.26610914  0.14844493  0.73811047    -0.00600
H327        H  0.40427253  0.14149386  0.72763212     0.14000
H328        H  0.33674367  0.17305566  0.68551489     0.13800
C329        C  0.81376730  0.20788280  0.70967441     0.85600
C330        C  0.77473281  0.17063862  0.72362694    -0.54700
C331        C  0.79294335  0.14870569  0.73524439     0.08500
C332        C  0.84871465  0.16386716  0.73119732     0.19400
C333        C  0.86116371  0.24501419  0.72080914    -0.55400
C334        C  0.87887125  0.22289415  0.73271763     0.08600
C335        C  0.82982398  0.17335512  0.69961235    -0.54900
C336        C  0.85047060  0.15200209  0.71054030     0.09200
H337        H  0.73539975  0.16148616  0.72418058     0.13700
H338        H  0.86164373  0.14401110  0.74046695    -0.00600
H339        H  0.87942116  0.28576720  0.71889370     0.14000
H340        H  0.82614316  0.16661540  0.68501031     0.13800
O341        O  0.66322921  0.40883591  0.66340875    -0.82700
C342        C  0.71285204  0.28905676  0.61555445     0.96600
O343        O  0.74227021  0.33085556  0.62349606    -0.71800
O344        O  0.73247695  0.41375323  0.61747282    -0.75400
Al345      Al  0.73366495  0.37775118  0.63889770     1.49000
C346        C  0.70916676  0.43843167  0.61644487     0.91900
O347        O  0.58926460  0.33531393  0.62071776    -0.81600
O348        O  0.60009417  0.26477725  0.66336931    -0.75200
Al349      Al  0.62846657  0.36979648  0.64187452     1.90100
O350        O  0.57586020  0.25910065  0.62675885    -0.74300
O351        O  0.68663112  0.26846370  0.65469371    -0.74100
O352        O  0.66549297  0.26818434  0.61823440    -0.79800
O353        O  0.74475791  0.34817938  0.66004069    -0.78000
O354        O  0.66571950  0.33963891  0.64050057    -1.14100
O355        O  0.74027785  0.43227573  0.65434964    -0.73300
C356        C  0.71078380  0.43840819  0.66488551     0.97400
C357        C  0.56371084  0.28764774  0.61834726     0.93800
Al358      Al  0.63494228  0.27148643  0.64072223     1.55600
O359        O  0.67053093  0.42529409  0.62627893    -0.77900
C360        C  0.72653521  0.30117180  0.66279515     0.98000
C361        C  0.57157831  0.28296988  0.66658827     0.92800
O362        O  0.57730840  0.32082462  0.65762644    -0.83300
C363        C  0.65641881  0.99490012  0.82569915     0.79300
N364        N  0.65950119  0.95203539  0.82563803    -0.79000
C365        C  0.67909402  0.94046062  0.81102581     0.81700
N366        N  0.69504489  0.97119007  0.79624398    -0.78900
C367        C  0.69178233  0.01403251  0.79612598     0.81800
N368        N  0.67274288  0.02599682  0.81092333    -0.80700
C369        C  0.69539921  0.69362457  0.79885027     0.79300
N370        N  0.69876971  0.73968162  0.79862893    -0.79000
C371        C  0.68464032  0.75619376  0.81336262     0.81700
N372        N  0.66745505  0.72702253  0.82837533    -0.78900
C373        C  0.66193613  0.67997560  0.82871567     0.81800
N374        N  0.67652332  0.66333870  0.81381362    -0.80700
C375        C  0.32900075  0.98753135  0.82661179     0.79300
N376        N  0.28241812  0.94515603  0.82742870    -0.79000
C377        C  0.24943479  0.93147578  0.81336721     0.90700
N378        N  0.26204868  0.96113034  0.79839949    -0.78900
C379        C  0.30792252  0.00455961  0.79751838     0.81800
N380        N  0.34174066  0.01776678  0.81158193    -0.80700
C381        C  0.99374893  0.68222654  0.79955276     0.79300
N382        N  0.03503852  0.72893006  0.80212116    -0.79000
C383        C  0.06475894  0.73996809  0.81705592     0.81700
N384        N  0.05263274  0.70440491  0.83010819    -0.78900
C385        C  0.01030384  0.65781360  0.82818226     0.81800
N386        N  0.98144314  0.64654832  0.81274648    -0.80700
C387        C  0.34084715  0.34723385  0.83066063     0.79300
N388        N  0.29202822  0.33566564  0.83301317    -0.79000
C389        C  0.25678361  0.30923618  0.82005811     0.81700
N390        N  0.27042573  0.29509544  0.80451986    -0.78900
C391        C  0.31932267  0.30744341  0.80159279     0.81800
N392        N  0.35482864  0.33404505  0.81475908    -0.80700
C393        C  0.00021030  0.29800373  0.79904290     0.79300
N394        N  0.98484087  0.31510129  0.81366203    -0.79000
C395        C  0.01023815  0.32516166  0.82995203     0.81700
N396        N  0.04948700  0.31636087  0.83148700    -0.78900
C397        C  0.06582317  0.30131030  0.81695796     0.81800
N398        N  0.04211193  0.29353984  0.80074071    -0.80700
C399        C  0.53680399  0.48622051  0.91468959     0.85600
C400        C  0.49842042  0.44993701  0.90033339    -0.54700
C401        C  0.48111682  0.47175441  0.88818313     0.08500
C402        C  0.50320892  0.52911046  0.89191349     0.19400
C403        C  0.57875561  0.53032677  0.90377303    -0.55400
C404        C  0.56171518  0.55206593  0.89147518     0.08600
C405        C  0.50661275  0.50918436  0.92380122    -0.54900
C406        C  0.49031130  0.53311897  0.91206398     0.09200
H407        H  0.48475391  0.40945698  0.90003436     0.13700
H408        H  0.48870091  0.54696788  0.88233727    -0.00600
H409        H  0.61874664  0.54240322  0.90541368     0.14000
H410        H  0.49801959  0.50641434  0.93824902     0.13800
C411        C  0.52926300  0.06302028  0.91212859     0.85600
C412        C  0.56849047  0.06610707  0.89787383    -0.54700
C413        C  0.54961316  0.02666011  0.88554585     0.08500
C414        C  0.49249274  0.98823152  0.88826690     0.19400
C415        C  0.48631970  0.05973719  0.89985253    -0.55400
C416        C  0.46672357  0.02098361  0.88729698     0.08600
C417        C  0.50650434  0.01001347  0.92062336    -0.54900
C418        C  0.48630776  0.97056644  0.90839181     0.09200
H419        H  0.60739529  0.09757063  0.89719714     0.13700
H420        H  0.47819405  0.95674802  0.87814590    -0.00600
H421        H  0.47347948  0.08690681  0.90061340     0.14000
H422        H  0.50377273  0.00404070  0.93527810     0.13800
C423        C  0.93615045  0.46018397  0.91246274     0.85600
C424        C  0.93693544  0.49594985  0.89751975    -0.54700
C425        C  0.97628590  0.51259736  0.88542255     0.08500
C426        C  0.01241413  0.49190692  0.88948529     0.19400
C427        C  0.93854275  0.41712812  0.90210978    -0.55400
C428        C  0.97727057  0.43313776  0.88968194     0.08600
C429        C  0.98966200  0.49277131  0.92117121    -0.54900
C430        C  0.02977241  0.50758301  0.90952720     0.09200
H431        H  0.90917376  0.50833305  0.89680737     0.13700
H432        H  0.04445750  0.50576760  0.87969721    -0.00600
H433        H  0.91098132  0.37721844  0.90428670     0.14000
H434        H  0.99642130  0.50616013  0.93511126     0.13800
O435        O  0.65235509  0.41532769  0.97386482    -0.82700
C436        C  0.61154000  0.23667864  0.01030524     0.96600
O437        O  0.59308239  0.26583346  0.00928972    -0.71800
O438        O  0.59183137  0.35267549  0.00361576    -0.75400
Al439      Al  0.59711769  0.30449471  0.98795583     1.49000
C440        C  0.62300010  0.39136087  0.01278722     0.91900
O441        O  0.75679163  0.41113297  0.00225404    -0.81600
O442        O  0.75317126  0.35110541  0.97131994    -0.75200
Al443      Al  0.70053592  0.40579611  0.98804620     1.90100
O444        O  0.73613838  0.33240942  0.00800537    -0.74300
O445        O  0.66409061  0.26930293  0.96395134    -0.74100
O446        O  0.64960433  0.24561990  0.00061815    -0.79800
O447        O  0.58745056  0.24893427  0.97236776    -0.78000
O448        O  0.66515024  0.33777152  0.98742748    -1.14100
O449        O  0.59164568  0.33823087  0.96666471    -0.73300
C450        C  0.61278077  0.38598502  0.96472312     0.97400
C451        C  0.76564448  0.37967215  0.01038935     0.93800
Al452      Al  0.69774673  0.30278082  0.98611113     1.55600
O453        O  0.67023851  0.40977983  0.01048611    -0.77900
C454        C  0.61654189  0.24077560  0.96237073     0.98000
C455        C  0.76173472  0.39032915  0.96258809     0.92800
O456        O  0.73557064  0.41126905  0.96559658    -0.83300
C457        C  0.79687182  0.40633979  0.93058146    -0.02800
C458        C  0.80489733  0.41242090  0.94950248     0.06900
C459        C  0.85445605  0.43213885  0.95622644    -0.02900
C460        C  0.89416463  0.43896229  0.94469639    -0.02900
C461        C  0.88917522  0.44006269  0.92542665     0.07000
C462        C  0.83859219  0.42143975  0.91852298    -0.03100
Br463      Br  0.82315099  0.41196738  0.89278571    -0.01600
Br464      Br  0.72818784  0.37662244  0.92140444    -0.01700
Br465      Br  0.94471961  0.42772862  0.95619893    -0.01700
Br466      Br  0.86964737  0.45342478  0.98124570    -0.01600
C467        C  0.54362310  0.17336070  0.94335032    -0.02800
C468        C  0.59443882  0.19536418  0.94973409     0.06900
C469        C  0.62093185  0.16883220  0.94611518    -0.02900
C470        C  0.59887751  0.12463864  0.93492181    -0.02900
C471        C  0.55034087  0.10634483  0.92673860     0.07000
C472        C  0.52066931  0.12691024  0.93359569    -0.03100
Br473      Br  0.44721978  0.08587453  0.93499673    -0.01600
Br474      Br  0.50348171  0.20571163  0.94740660    -0.01700
Br475      Br  0.63205570  0.08475097  0.93385158    -0.01700
Br476      Br  0.68595729  0.18920602  0.95754994    -0.01600
C477        C  0.58594336  0.45022636  0.95784993    -0.02800
C478        C  0.59128037  0.40895016  0.95196847     0.06900
C479        C  0.58156312  0.39424447  0.93348960    -0.02900
C480        C  0.56757199  0.42096692  0.92113674    -0.02900
C481        C  0.55867987  0.46063675  0.92739838     0.07000
C482        C  0.57433054  0.47826334  0.94551782    -0.03100
Br483      Br  0.59345591  0.54655955  0.95295043    -0.01600
Br484      Br  0.58952193  0.46639713  0.98330328    -0.01700
Br485      Br  0.57144694  0.40829444  0.89545792    -0.01700
Br486      Br  0.58877906  0.33801779  0.92488615    -0.01600
C487        C  0.04099584  0.38658409  0.85644727    -0.02800
C488        C  0.99983304  0.35016245  0.84564239     0.06900
C489        C  0.94984730  0.33718680  0.85051784    -0.02900
C490        C  0.94154212  0.36270745  0.86516997    -0.02900
C491        C  0.98290013  0.39850658  0.87621534     0.07000
C492        C  0.03196760  0.40691778  0.87231227    -0.03100
Br493      Br  0.08771483  0.44392393  0.88905485    -0.01600
Br494      Br  0.11127536  0.41472517  0.84891142    -0.01700
Br495      Br  0.87374268  0.35134316  0.86816281    -0.01700
Br496      Br  0.89219561  0.28433823  0.83725216    -0.01600
C497        C  0.37029399  0.36077129  0.86302848    -0.02800
C498        C  0.37839361  0.37797623  0.84488330     0.06900
C499        C  0.41809640  0.42725695  0.84090831    -0.02900
C500        C  0.45195277  0.45798103  0.85477929    -0.02900
C501        C  0.44402689  0.44124453  0.87320659     0.07000
C502        C  0.40106201  0.39305051  0.87720618    -0.03100
Br503      Br  0.38004928  0.37224775  0.90211592    -0.01600
Br504      Br  0.31741264  0.29201759  0.86843297    -0.01700
Br505      Br  0.50916714  0.52144648  0.84740041    -0.01700
Br506      Br  0.42398189  0.45397199  0.81653891    -0.01600
C507        C  0.16504292  0.26633377  0.82842750    -0.02800
C508        C  0.20814795  0.30761448  0.82057908     0.06900
C509        C  0.20484926  0.34739114  0.81222176    -0.02900
C510        C  0.15767809  0.34453318  0.81076195    -0.02900
C511        C  0.11413636  0.30242060  0.81803268     0.07000
C512        C  0.11762486  0.26354417  0.82704156    -0.03100
Br513      Br  0.05730198  0.20613097  0.83685556    -0.01600
Br514      Br  0.17152468  0.21486764  0.84135541    -0.01700
Br515      Br  0.15288376  0.39879821  0.79905873    -0.01700
Br516      Br  0.26539994  0.40672691  0.80332406    -0.01600
C517        C  0.99224326  0.63022087  0.86075150    -0.02800
C518        C  0.99785761  0.61918565  0.84247760     0.06900
C519        C  0.99521024  0.57277731  0.83813623    -0.02900
C520        C  0.98805970  0.53797918  0.85202873    -0.02900
C521        C  0.98400933  0.54939276  0.87052164     0.07000
C522        C  0.98613499  0.59602502  0.87474600    -0.03100
Br523      Br  0.98413506  0.61565408  0.89978001    -0.01600
Br524      Br  0.99069366  0.69150865  0.86657077    -0.01700
Br525      Br  0.98210180  0.47432791  0.84496130    -0.01700
Br526      Br  0.00334028  0.55746747  0.81310234    -0.01600
C527        C  0.36553860  0.95687645  0.85048788    -0.02800
C528        C  0.36503897  0.99812227  0.84194948     0.06900
C529        C  0.39626057  0.04769175  0.84901045    -0.02900
C530        C  0.43028754  0.05611189  0.86352605    -0.02900
C531        C  0.42796118  0.01393800  0.87298476     0.07000
C532        C  0.39221159  0.96423558  0.86684524    -0.03100
Br533      Br  0.37442723  0.90436646  0.88095491    -0.01600
Br534      Br  0.33390964  0.88996702  0.83911728    -0.01700
Br535      Br  0.48461587  0.12570630  0.86745547    -0.01700
Br536      Br  0.39240547  0.10451027  0.83915714    -0.01600
C537        C  0.16116934  0.87836248  0.82474304    -0.02800
C538        C  0.20175267  0.88290717  0.81410069     0.06900
C539        C  0.19846661  0.84001257  0.80537278    -0.02900
C540        C  0.15401941  0.79248891  0.80705080    -0.02900
C541        C  0.11313519  0.78798227  0.81754113     0.07000
C542        C  0.11684906  0.83064131  0.82658981    -0.03100
Br543      Br  0.06114373  0.82354741  0.84132053    -0.01600
Br544      Br  0.16597205  0.93791374  0.83621688    -0.01700
Br545      Br  0.14933189  0.73330355  0.79521772    -0.01700
Br546      Br  0.25518819  0.84633256  0.79138181    -0.01600
C547        C  0.60465625  0.65545308  0.85613552    -0.02800
C548        C  0.63898234  0.64791507  0.84523405     0.06900
C549        C  0.65160789  0.61103706  0.85074971    -0.02900
C550        C  0.62730783  0.57995988  0.86599602    -0.02900
C551        C  0.59489272  0.58947780  0.87729266     0.07000
C552        C  0.58728286  0.63017369  0.87280263    -0.03100
Br553      Br  0.55381036  0.65325586  0.88937491    -0.01600
Br554      Br  0.57386661  0.69423541  0.84769252    -0.01700
Br555      Br  0.63461195  0.52104544  0.86942762    -0.01700
Br556      Br  0.70176408  0.60166697  0.83772305    -0.01600
C557        C  0.64813563  0.00778648  0.85919787    -0.02800
C558        C  0.63141793  0.00515656  0.84106190     0.06900
C559        C  0.58937009  0.01098817  0.83750401    -0.02900
C560        C  0.56568975  0.02196833  0.85180716    -0.02900
C561        C  0.58018207  0.02237551  0.87020272     0.07000
C562        C  0.62229865  0.01576701  0.87372904    -0.03100
Br563      Br  0.64482646  0.01651870  0.89830893    -0.01600
Br564      Br  0.70683671  0.00098638  0.86413468    -0.01700
Br565      Br  0.51795838  0.04215048  0.84505913    -0.01700
Br566      Br  0.56132142  0.00005312  0.81302923    -0.01600
C567        C  0.72530139  0.89464224  0.81768414    -0.02800
C568        C  0.68144760  0.89384790  0.81110622     0.06900
C569        C  0.63868206  0.84800759  0.80543310    -0.02900
C570        C  0.64038609  0.80285781  0.80574861    -0.02900
C571        C  0.68393052  0.80353848  0.81257244     0.07000
C572        C  0.72601761  0.84899275  0.81886029    -0.03100
Br573      Br  0.78361902  0.84808022  0.82946150    -0.01600
Br574      Br  0.78388117  0.95805381  0.82515861    -0.01700
Br575      Br  0.58305719  0.73997737  0.79705202    -0.01700
Br576      Br  0.57756003  0.84710498  0.79769936    -0.01600
C577        C  0.71694654  0.06863358  0.74814926    -0.02800
C578        C  0.76257820  0.11561989  0.75096509     0.06900
C579        C  0.77895131  0.13123717  0.76914779    -0.02900
C580        C  0.75632036  0.09768674  0.78376611    -0.02900
C581        C  0.71341254  0.04966461  0.78073277     0.07000
C582        C  0.69230271  0.03597676  0.76306174    -0.03100
Br583      Br  0.62855079  0.97342293  0.75958321    -0.01600
Br584      Br  0.68658496  0.04930527  0.72421420    -0.01700
Br585      Br  0.78541315  0.11721602  0.80802627    -0.01700
Br586      Br  0.82500846  0.20075063  0.77514239    -0.01600
C587        C  0.94820380  0.23037872  0.75366344    -0.02800
C588        C  0.91898848  0.25153027  0.74725718     0.06900
C589        C  0.92198130  0.29357684  0.75733036    -0.02900
C590        C  0.95111447  0.31089252  0.77361526    -0.02900
C591        C  0.97235845  0.28321838  0.78126311     0.07000
C592        C  0.96948461  0.24193443  0.77121978    -0.03100
Br593      Br  0.98880619  0.19576895  0.78186000    -0.01600
Br594      Br  0.96375830  0.18801721  0.73843724    -0.01700
Br595      Br  0.96127365  0.37250006  0.78540981    -0.01700
Br596      Br  0.88075118  0.32371828  0.75163048    -0.01600
C597        C  0.81538024  0.25680390  0.68026571    -0.02800
C598        C  0.79440835  0.23715071  0.69780813     0.06900
C599        C  0.75923373  0.25121196  0.70491292    -0.02900
C600        C  0.73622825  0.27081944  0.69330677    -0.02900
C601        C  0.75252941  0.28329054  0.67523602     0.07000
C602        C  0.79370276  0.27857949  0.66902389    -0.03100
Br603      Br  0.82099390  0.30295154  0.64501257    -0.01600
Br604      Br  0.87835470  0.26253365  0.67200577    -0.01700
Br605      Br  0.68303760  0.28247044  0.70218224    -0.01700
Br606      Br  0.74873805  0.25442623  0.73083353    -0.01600
C607        C  0.30025771  0.07445510  0.78389753    -0.02800
C608        C  0.31713064  0.03942710  0.78227390     0.06900
C609        C  0.33248509  0.03082864  0.76524602    -0.02900
C610        C  0.33237698  0.05834598  0.74984300    -0.02900
C611        C  0.32047985  0.09788833  0.75148320     0.07000
C612        C  0.30074109  0.10294375  0.76869222    -0.03100
Br613      Br  0.26869851  0.14304962  0.77282331    -0.01600
Br614      Br  0.27424105  0.08130783  0.80731409    -0.01700
Br615      Br  0.33953036  0.03444551  0.72621669    -0.01700
Br616      Br  0.35276411  0.98016943  0.76313491    -0.01600
C617        C  0.30867607  0.26675845  0.75189298    -0.02800
C618        C  0.34166798  0.24714988  0.75122509     0.06900
C619        C  0.37310707  0.25366253  0.76647118    -0.02900
C620        C  0.36733776  0.27473037  0.78289524    -0.02900
C621        C  0.33251741  0.29266749  0.78382014     0.07000
C622        C  0.30610757  0.29178337  0.76770634    -0.03100
Br623      Br  0.26880032  0.32767793  0.76639589    -0.01600
Br624      Br  0.26614473  0.25856845  0.73115967    -0.01700
Br625      Br  0.40468553  0.27470758  0.80422889    -0.01700
Br626      Br  0.42094954  0.22942914  0.76567408    -0.01600
C627        C  0.44924363  0.18491748  0.69079447    -0.02800
C628        C  0.43438261  0.21712939  0.69970382     0.06900
C629        C  0.46429737  0.27007786  0.69610367    -0.02900
C630        C  0.51324781  0.29061568  0.68878061    -0.02900
C631        C  0.52859272  0.25921834  0.68000953     0.07000
C632        C  0.49601499  0.20575853  0.68111096    -0.03100
Br633      Br  0.51358766  0.16036918  0.66878083    -0.01600
Br634      Br  0.40200203  0.11286866  0.68859178    -0.01700
Br635      Br  0.55955032  0.36253616  0.69175737    -0.01700
Br636      Br  0.43438963  0.31318981  0.69453461    -0.01600
C637        C  0.95865487  0.70392706  0.75224939    -0.02800
C638        C  0.90672267  0.66796375  0.75110481     0.06900
C639        C  0.88290855  0.63297453  0.76554261    -0.02900
C640        C  0.91068670  0.63657376  0.78147514    -0.02900
C641        C  0.96373307  0.67196863  0.78231016     0.07000
C642        C  0.98777368  0.70225086  0.76671569    -0.03100
Br643      Br  0.06076530  0.73791151  0.76347359    -0.01600
Br644      Br  0.98981529  0.75839870  0.73481423    -0.01700
Br645      Br  0.87393579  0.59465474  0.80210236    -0.01700
Br646      Br  0.81062666  0.58432007  0.76472312    -0.01600
C647        C  0.80053424  0.70090176  0.77007958    -0.02800
C648        C  0.77619342  0.68323084  0.75262777     0.06900
C649        C  0.72434538  0.67016934  0.75118773    -0.02900
C650        C  0.69622824  0.66789973  0.76678678    -0.02900
C651        C  0.71992271  0.68187798  0.78389756     0.07000
C652        C  0.77195104  0.69903230  0.78550669    -0.03100
Br653      Br  0.80451713  0.72390429  0.80913435    -0.01600
Br654      Br  0.87281964  0.73384846  0.77437216    -0.01700
Br655      Br  0.62513200  0.64764750  0.76484104    -0.01700
Br656      Br  0.69330139  0.66471576  0.72774259    -0.01600
C657        C  0.81102198  0.54961043  0.69330252    -0.02800
C658        C  0.78582491  0.57632122  0.69883223     0.06900
C659        C  0.73658844  0.55886941  0.69145035    -0.02900
C660        C  0.70963199  0.51126462  0.68230235    -0.02900
C661        C  0.73359080  0.48259563  0.67821014     0.07000
C662        C  0.78403037  0.50169430  0.68454941    -0.03100
Br663      Br  0.81650822  0.46100558  0.68268359    -0.01600
Br664      Br  0.88469025  0.58209797  0.69306436    -0.01700
Br665      Br  0.63949180  0.48673260  0.67586562    -0.01700
Br666      Br  0.70973449  0.60431224  0.68998176    -0.01600
C667        C  0.86161241  0.92387231  0.35298330    -0.02800
C668        C  0.85688488  0.93985871  0.33559811     0.06900
C669        C  0.81228253  0.94025505  0.33088054    -0.02900
C670        C  0.77104386  0.92151571  0.34316715    -0.02900
C671        C  0.77230371  0.89768846  0.35971176     0.07000
C672        C  0.82073637  0.90544671  0.36534503    -0.03100
Br673      Br  0.83646198  0.90074901  0.39053157    -0.01600
Br674      Br  0.92551839  0.92929278  0.36000292    -0.01700
Br675      Br  0.71848698  0.93805634  0.33832259    -0.01700
Br676      Br  0.80727770  0.96536486  0.30726141    -0.01600
C677        C  0.05337811  0.19687511  0.35799988    -0.02800
C678        C  0.10675347  0.23000100  0.36047079     0.06900
C679        C  0.13968255  0.22082910  0.34913915    -0.02900
C680        C  0.12042804  0.17660099  0.33813907    -0.02900
C681        C  0.06783469  0.14101124  0.33765710     0.07000
C682        C  0.03462298  0.15120817  0.34783224    -0.03100
Br683      Br  0.96263186  0.10160770  0.34830880    -0.01600
Br684      Br  0.00463274  0.21799350  0.36309201    -0.01700
Br685      Br  0.16677360  0.16654801  0.32295073    -0.01700
Br686      Br  0.21152064  0.27067490  0.34681874    -0.01600
C687        C  0.06216011  0.85173883  0.35246005    -0.02800
C688        C  0.10455967  0.88258220  0.36425726     0.06900
C689        C  0.12652813  0.93668176  0.36268897    -0.02900
C690        C  0.10255888  0.95755360  0.35208952    -0.02900
C691        C  0.06128800  0.92643007  0.34055554     0.07000
C692        C  0.04223415  0.87361110  0.34046176    -0.03100
Br693      Br  0.99075630  0.83063400  0.32274592    -0.01600
Br694      Br  0.02970883  0.77830840  0.35146347    -0.01700
Br695      Br  0.12611991  0.02976054  0.35360144    -0.01700
Br696      Br  0.19429321  0.98540521  0.37087684    -0.01600
C697        C  0.21176796  0.29143758  0.42848181    -0.02800
C698        C  0.23227168  0.31417503  0.41152023     0.06900
C699        C  0.28409880  0.33230212  0.40822277    -0.02900
C700        C  0.31702110  0.33911746  0.42287957    -0.02900
C701        C  0.29783461  0.32693918  0.44094744     0.07000
C702        C  0.24429375  0.29998356  0.44344934    -0.03100
Br703      Br  0.21385705  0.27782927  0.46723159    -0.01600
Br704      Br  0.13909304  0.24730733  0.43112414    -0.01700
Br705      Br  0.38768575  0.36223098  0.41771669    -0.01700
Br706      Br  0.30844618  0.34159323  0.38343611    -0.01600
C707        C  0.66207741  0.68975559  0.42421476    -0.02800
C708        C  0.67291165  0.71286945  0.44176336     0.06900
C709        C  0.69891295  0.76672095  0.44291113    -0.02900
C710        C  0.70829387  0.79563031  0.42691434    -0.02900
C711        C  0.68563644  0.77120507  0.41022298     0.07000
C712        C  0.66716777  0.71871234  0.40859844    -0.03100
Br713      Br  0.65295476  0.68717641  0.38490618    -0.01600
Br714      Br  0.64371809  0.61926145  0.42113840    -0.01700
Br715      Br  0.75291025  0.86845373  0.42811446    -0.01700
Br716      Br  0.71795283  0.80231887  0.46607695    -0.01600
C717        C  0.50510036  0.46071775  0.47453247    -0.02800
C718        C  0.45794258  0.45656421  0.47005189     0.06900
C719        C  0.45591569  0.50103972  0.46620606    -0.02900
C720        C  0.50082826  0.54904986  0.46645063    -0.02900
C721        C  0.54779149  0.55304441  0.47103580     0.07000
C722        C  0.54970613  0.50872428  0.47512127    -0.03100
Br723      Br  0.61386639  0.51313647  0.48096207    -0.01600
Br724      Br  0.50958906  0.40063794  0.47943826    -0.01700
Br725      Br  0.49723294  0.60962273  0.46166988    -0.01700
Br726      Br  0.39122363  0.49721093  0.46226366    -0.01600
C727        C  0.02403751  0.73937119  0.44354902    -0.02800
C728        C  0.01729357  0.68953461  0.44449601     0.06900
C729        C  0.02711512  0.66886617  0.42848168    -0.02900
C730        C  0.05032696  0.69976198  0.41320031    -0.02900
C731        C  0.06201107  0.75058643  0.41319729     0.07000
C732        C  0.04658713  0.76969741  0.42800609    -0.03100
Br733      Br  0.06387055  0.84039530  0.42851487    -0.01600
Br734      Br  0.00626428  0.76962533  0.46349659    -0.01700
Br735      Br  0.06758128  0.67290263  0.39216254    -0.01700
Br736      Br  0.00778936  0.59779407  0.42629260    -0.01600
C737        C  0.09057173  0.35162765  0.44894010    -0.02800
C738        C  0.03942457  0.33759804  0.44661484     0.06900
C739        C  0.01785596  0.32611543  0.42912053    -0.02900
C740        C  0.04614477  0.32462035  0.41410487    -0.02900
C741        C  0.09683542  0.33419490  0.41636333     0.07000
C742        C  0.11989152  0.35179994  0.43396341    -0.03100
Br743      Br  0.19162127  0.38144705  0.43886252    -0.01600
Br744      Br  0.12100870  0.37390899  0.47294106    -0.01700
Br745      Br  0.01648689  0.31710269  0.39029110    -0.01700
Br746      Br  0.94984718  0.31492914  0.42578481    -0.01600
C747        C  0.04197175  0.49690831  0.48720876    -0.02800
C748        C  0.00140297  0.45493244  0.47833335     0.06900
C749        C  0.96160215  0.45904771  0.47036814    -0.02900
C750        C  0.96254321  0.50551601  0.47115293    -0.02900
C751        C  0.00347590  0.54781509  0.47978851     0.07000
C752        C  0.04296305  0.54360205  0.48798687    -0.03100
Br753      Br  0.09787833  0.60154675  0.50019366    -0.01600
Br754      Br  0.09600794  0.49013654  0.49806362    -0.01700
Br755      Br  0.90711784  0.51103329  0.46073072    -0.01700
Br756      Br  0.90576688  0.40100122  0.45842253    -0.01600
C757        C  0.67810186  0.98657065  0.42547522    -0.02800
C758        C  0.66705578  0.96586071  0.44309185     0.06900
C759        C  0.65387505  0.91501287  0.44556063    -0.02900
C760        C  0.65053396  0.88429163  0.43053251    -0.02900
C761        C  0.66776744  0.90621765  0.41286916     0.07000
C762        C  0.67944214  0.95762527  0.41050369    -0.03100
Br763      Br  0.69001177  0.98750002  0.38649217    -0.01600
Br764      Br  0.68920859  0.05433371  0.42193045    -0.01700
Br765      Br  0.61553948  0.81224936  0.43538981    -0.01700
Br766      Br  0.63671330  0.88651277  0.46989556    -0.01600
C767        C  0.20723314  0.86081668  0.43672423    -0.02800
C768        C  0.21563134  0.88349406  0.41911654     0.06900
C769        C  0.25991817  0.93185575  0.41666082    -0.02900
C770        C  0.29116547  0.95897975  0.43161863    -0.02900
C771        C  0.28006476  0.93773879  0.44916608     0.07000
C772        C  0.23871115  0.88843657  0.45162363    -0.03100
Br773      Br  0.22720435  0.85800203  0.47558031    -0.01600
Br774      Br  0.15697512  0.79121738  0.44141183    -0.01700
Br775      Br  0.34998500  0.02553314  0.42807147    -0.01700
Br776      Br  0.28287835  0.95851571  0.39247394    -0.01600
C777        C  0.48203437  0.01973063  0.46436740    -0.02800
C778        C  0.44412060  0.98362846  0.47585301     0.06900
C779        C  0.45306332  0.94981346  0.48603942    -0.02900
C780        C  0.50043241  0.95243494  0.48480596    -0.02900
C781        C  0.53848501  0.98898142  0.47344655     0.07000
C782        C  0.52896630  0.02182643  0.46291919    -0.03100
Br783      Br  0.58076812  0.07067866  0.44689198    -0.01600
Br784      Br  0.47093814  0.06852409  0.45153626    -0.01700
Br785      Br  0.51284659  0.90518419  0.49811945    -0.01700
Br786      Br  0.40059413  0.90050902  0.50171079    -0.01600
C787        C  0.20330695  0.08402674  0.70499803    -0.02800
C788        C  0.24158014  0.13499412  0.70168284     0.06900
C789        C  0.23011941  0.16506370  0.69012873    -0.02900
C790        C  0.18127356  0.14452927  0.68213971    -0.02900
C791        C  0.14537639  0.09191804  0.68373137     0.07000
C792        C  0.15601469  0.06246592  0.69583379    -0.03100
Br793      Br  0.10479742  0.99249651  0.70042726    -0.01600
Br794      Br  0.21615621  0.04156965  0.72096578    -0.01700
Br795      Br  0.16554917  0.18862468  0.66812967    -0.01700
Br796      Br  0.28193090  0.23388042  0.68425473    -0.01600
C797        C  0.92672880  0.15682762  0.69435044    -0.02800
C798        C  0.87819207  0.12692344  0.70232624     0.06900
C799        C  0.85454221  0.07360398  0.70071694    -0.02900
C800        C  0.87680550  0.05049559  0.69015126    -0.02900
C801        C  0.92661441  0.08013503  0.68262089     0.07000
C802        C  0.95190307  0.13387377  0.68560746    -0.03100
Br803      Br  0.02204368  0.17809977  0.67845372    -0.01600
Br804      Br  0.95947423  0.23028039  0.69526792    -0.01700
Br805      Br  0.83481670  0.97874837  0.68476097    -0.01700
Br806      Br  0.79029935  0.03199914  0.71264010    -0.01600
C807        C  0.96013856  0.83105051  0.68296221    -0.02800
C808        C  0.94333021  0.86643805  0.68567284     0.06900
C809        C  0.90360922  0.85433306  0.69817655    -0.02900
C810        C  0.87778526  0.80596726  0.70651689    -0.02900
C811        C  0.89286343  0.76959210  0.70314646     0.07000
C812        C  0.93515802  0.78311017  0.69166160    -0.03100
Br813      Br  0.95880776  0.73561798  0.68747680    -0.01600
Br814      Br  0.01563964  0.84619888  0.66653887    -0.01700
Br815      Br  0.81876497  0.78860354  0.72120865    -0.01700
Br816      Br  0.88608825  0.90518938  0.70455414    -0.01600
C817        C  0.48119092  0.28102311  0.60870512    -0.02800
C818        C  0.51703831  0.26481651  0.60657525     0.06900
C819        C  0.50647964  0.22540685  0.59387765    -0.02900
C820        C  0.46076906  0.20265513  0.58351037    -0.02900
C821        C  0.42491710  0.21904401  0.58559641     0.07000
C822        C  0.43643107  0.25929316  0.59804785    -0.03100
Br823      Br  0.39231766  0.28716308  0.60046447    -0.01600
Br824      Br  0.49029292  0.32995883  0.62752738    -0.01700
Br825      Br  0.44702925  0.14762350  0.56703045    -0.01700
Br826      Br  0.55477635  0.20252017  0.59047681    -0.01600
C827        C  0.30363384  0.21689439  0.51940634    -0.02800
C828        C  0.33227108  0.24002977  0.53539007     0.06900
C829        C  0.36658533  0.29268661  0.53544002    -0.02900
C830        C  0.37109504  0.32246721  0.52011319    -0.02900
C831        C  0.34629816  0.29889239  0.50334811     0.07000
C832        C  0.31283758  0.24523143  0.50320723    -0.03100
Br833      Br  0.28238355  0.20771232  0.48088396    -0.01600
Br834      Br  0.25437045  0.14500182  0.51902094    -0.01700
Br835      Br  0.40907179  0.39581460  0.52346100    -0.01700
Br836      Br  0.40834861  0.32462318  0.55653691    -0.01600
C837        C  0.33111328  0.05113202  0.53942632    -0.02800
C838        C  0.34254319  0.10186794  0.53616671     0.06900
C839        C  0.35900697  0.12177730  0.51826784    -0.02900
C840        C  0.35377806  0.08901522  0.50366006    -0.02900
C841        C  0.33829467  0.03779981  0.50688945     0.07000
C842        C  0.32925157  0.01957954  0.52487865    -0.03100
Br843      Br  0.31511631  0.95120217  0.52950380    -0.01600
Br844      Br  0.32488912  0.02632203  0.56407506    -0.01700
Br845      Br  0.37041628  0.11471926  0.47898215    -0.01700
Br846      Br  0.39590521  0.19349057  0.51292352    -0.01600
C847        C  0.18136973  0.07901360  0.57898868    -0.02800
C848        C  0.22982109  0.11758673  0.58585257     0.06900
C849        C  0.23020246  0.13427289  0.60399075    -0.02900
C850        C  0.19032232  0.10543045  0.61593514    -0.02900
C851        C  0.14279649  0.06773672  0.60945332     0.07000
C852        C  0.13829552  0.05433503  0.59078696    -0.03100
Br853      Br  0.07316785  0.00245518  0.58148353    -0.01600
Br854      Br  0.16997772  0.06492258  0.55323019    -0.01700
Br855      Br  0.20407212  0.11524534  0.64157747    -0.01700
Br856      Br  0.27342143  0.20376053  0.61156764    -0.01600
C857        C  0.73280559  0.18324118  0.59496556    -0.02800
C858        C  0.78148579  0.21145214  0.58710886     0.06900
C859        C  0.80894948  0.26455516  0.58986909    -0.02900
C860        C  0.78479313  0.29021481  0.59710516    -0.02900
C861        C  0.73485239  0.26241673  0.60452412     0.07000
C862        C  0.70990195  0.20814965  0.60385567    -0.03100
Br863      Br  0.64687196  0.16587641  0.61668199    -0.01600
Br864      Br  0.70039256  0.10976826  0.59568979    -0.01700
Br865      Br  0.82192919  0.36373482  0.59654059    -0.01700
Br866      Br  0.88217697  0.30084208  0.58734535    -0.01600
C867        C  0.93097016  0.22300718  0.52694040    -0.02800
C868        C  0.89500088  0.23045411  0.53715549     0.06900
C869        C  0.88230068  0.26637891  0.53028724    -0.02900
C870        C  0.90162568  0.29031890  0.51347932    -0.02900
C871        C  0.94241266  0.28847702  0.50506596     0.07000
C872        C  0.95749834  0.25503418  0.51209798    -0.03100
Br873      Br  0.01581018  0.25391390  0.50207287    -0.01600
Br874      Br  0.94225593  0.16666238  0.53107693    -0.01700
Br875      Br  0.86846683  0.32251929  0.50141110    -0.01700
Br876      Br  0.84315038  0.28966608  0.54374067    -0.01600
C877        C  0.71725240  0.10263506  0.53217639    -0.02800
C878        C  0.75623677  0.09298861  0.53767542     0.06900
C879        C  0.76768430  0.06249729  0.52593253    -0.02900
C880        C  0.73869693  0.04007594  0.50993172    -0.02900
C881        C  0.70255027  0.05310714  0.50391786     0.07000
C882        C  0.69447222  0.08712620  0.51481652    -0.03100
Br883      Br  0.65597607  0.11735037  0.50565189    -0.01600
Br884      Br  0.69029932  0.13292624  0.54872664    -0.01700
Br885      Br  0.74802188  0.98972041  0.49696819    -0.01700
Br886      Br  0.82473234  0.05248949  0.53026266    -0.01600
C887        C  0.85126556  0.06288629  0.59604773    -0.02800
C888        C  0.87618183  0.11527905  0.59136736     0.06900
C889        C  0.92517128  0.14742385  0.59910012    -0.02900
C890        C  0.95205223  0.12658075  0.60777008    -0.02900
C891        C  0.92904586  0.07324996  0.61019197     0.07000
C892        C  0.87878877  0.04166850  0.60375224    -0.03100
Br893      Br  0.84698823  0.96832785  0.60459968    -0.01600
Br894      Br  0.77781823  0.02266232  0.59780590    -0.01700
Br895      Br  0.01999852  0.17280154  0.61676657    -0.01700
Br896      Br  0.95286454  0.22038244  0.60088294    -0.01600
C897        C  0.73771337  0.56973173  0.59955044    -0.02800
C898        C  0.77086201  0.57886901  0.58474974     0.06900
C899        C  0.77990945  0.53927936  0.57927065    -0.02900
C900        C  0.75706040  0.49222520  0.58870520    -0.02900
C901        C  0.72826450  0.48531363  0.60473641     0.07000
C902        C  0.71915352  0.52516951  0.61001070    -0.03100
Br903      Br  0.68554455  0.52345512  0.63254135    -0.01600
Br904      Br  0.71568069  0.61765383  0.60551989    -0.01700
Br905      Br  0.76416613  0.43697730  0.57899765    -0.01700
Br906      Br  0.82623508  0.54943327  0.55967790    -0.01600
C907        C  0.77942878  0.71524921  0.52259619    -0.02800
C908        C  0.75522203  0.68501526  0.53804472     0.06900
C909        C  0.70203831  0.65502108  0.53832168    -0.02900
C910        C  0.67316238  0.65268725  0.52294418    -0.02900
C911        C  0.69769154  0.67589912  0.50624324     0.07000
C912        C  0.75148607  0.70846500  0.50640142    -0.03100
Br913      Br  0.78965299  0.74022909  0.48449151    -0.01600
Br914      Br  0.85202457  0.76266362  0.52291368    -0.01700
Br915      Br  0.60002596  0.61986277  0.52577661    -0.01700
Br916      Br  0.66870886  0.61759087  0.56003968    -0.01600
C917        C  0.86265243  0.64357438  0.51836419    -0.02800
C918        C  0.88516025  0.66095312  0.53602843     0.06900
C919        C  0.93440692  0.66776786  0.53891458    -0.02900
C920        C  0.96325353  0.66579731  0.52425501    -0.02900
C921        C  0.94190736  0.65237111  0.50672121     0.07000
C922        C  0.89130596  0.63985620  0.50389616    -0.03100
Br923      Br  0.86043798  0.61439362  0.48013835    -0.01600
Br924      Br  0.79231128  0.61980071  0.51282771    -0.01700
Br925      Br  0.03277836  0.68209624  0.52813135    -0.01700
Br926      Br  0.95964394  0.67005298  0.56318634    -0.01600
C927        C  0.93008749  0.79328749  0.59546956    -0.02800
C928        C  0.87817744  0.77039458  0.59026005     0.06900
C929        C  0.84832541  0.78732400  0.59983770    -0.02900
C930        C  0.87146423  0.83041044  0.61151927    -0.02900
C931        C  0.92504995  0.85901078  0.61352952     0.07000
C932        C  0.95413809  0.83948714  0.60544083    -0.03100
Br933      Br  0.02752349  0.87449463  0.60781719    -0.01600
Br934      Br  0.96519739  0.75548289  0.59451247    -0.01700
Br935      Br  0.82801175  0.84576383  0.62639088    -0.01700
Br936      Br  0.77454513  0.74925576  0.59927914    -0.01600
C937        C  0.81980452  0.20589361  0.14389640    -0.02800
C938        C  0.86575547  0.20574933  0.14550367     0.06900
C939        C  0.86572699  0.15995227  0.14827611    -0.02900
C940        C  0.81943906  0.11369818  0.14853614    -0.02900
C941        C  0.77329271  0.11357154  0.14624556     0.07000
C942        C  0.77345306  0.15974845  0.14420041    -0.03100
Br943      Br  0.71031718  0.16028780  0.14264324    -0.01600
Br944      Br  0.82057824  0.26967308  0.14228175    -0.01700
Br945      Br  0.81987650  0.05062352  0.15102096    -0.01700
Br946      Br  0.92910898  0.16038858  0.15122150    -0.01600
C947        C  0.26053521  0.75651415  0.36692474    -0.02800
C948        C  0.24039681  0.72787880  0.35079286     0.06900
C949        C  0.19286526  0.71933982  0.34439855    -0.02900
C950        C  0.16742341  0.74131968  0.35343671    -0.02900
C951        C  0.18949157  0.77390933  0.36878863     0.07000
C952        C  0.23576417  0.77971172  0.37580630    -0.03100
Br953      Br  0.26782009  0.82079791  0.39714242    -0.01600
Br954      Br  0.32107300  0.76161074  0.37733572    -0.01700
Br955      Br  0.10043647  0.72298957  0.34500064    -0.01700
Br956      Br  0.16254340  0.67902445  0.32260610    -0.01600
C957        C  0.27752077  0.50763372  0.36227700    -0.02800
C958        C  0.24853828  0.51760421  0.34944996     0.06900
C959        C  0.19574481  0.48076631  0.34763235    -0.02900
C960        C  0.17424144  0.43443820  0.35726683    -0.02900
C961        C  0.20467126  0.42203636  0.36819415     0.07000
C962        C  0.25597760  0.46006811  0.37127006    -0.03100
Br963      Br  0.29827016  0.44795132  0.38755504    -0.01600
Br964      Br  0.34665864  0.55913801  0.36853920    -0.01700
Br965      Br  0.10145088  0.38878371  0.35607375    -0.01700
Br966      Br  0.15032211  0.49034978  0.33173114    -0.01600
C967        C  0.50724716  0.71381372  0.34968562    -0.02800
C968        C  0.47428677  0.73449326  0.35120817     0.06900
C969        C  0.49340075  0.78151997  0.36087213    -0.02900
C970        C  0.54358312  0.80703507  0.36812879    -0.02900
C971        C  0.57690140  0.78803219  0.36525998     0.07000
C972        C  0.55867052  0.74214432  0.35541266    -0.03100
Br973      Br  0.60499812  0.71912096  0.34852426    -0.01600
Br974      Br  0.48353424  0.64516641  0.34092643    -0.01700
Br975      Br  0.56819194  0.87105527  0.38071781    -0.01700
Br976      Br  0.45273097  0.81328044  0.36450776    -0.01600
C977        C  0.15682015  0.92869026  0.25990973    -0.02800
C978        C  0.12766982  0.88357052  0.24959938     0.06900
C979        C  0.07510449  0.86495903  0.24736468    -0.02900
C980        C  0.05157510  0.88933795  0.25616305    -0.02900
C981        C  0.08021240  0.93217143  0.26762014     0.07000
C982        C  0.13320063  0.95175905  0.26934782    -0.03100
Br983      Br  0.17393888  0.00767111  0.28584565    -0.01600
Br984      Br  0.23011161  0.96234768  0.25989612    -0.01700
Br985      Br  0.98005066  0.86437622  0.25210706    -0.01700
Br986      Br  0.03484843  0.80572819  0.23243010    -0.01600
C987        C  0.25688188  0.82083959  0.27207878    -0.02800
C988        C  0.23607502  0.79844716  0.25475811     0.06900
C989        C  0.24471104  0.75850169  0.24877462    -0.02900
C990        C  0.26028203  0.73380741  0.26129854    -0.02900
C991        C  0.27371787  0.75234909  0.27920881     0.07000
C992        C  0.27369784  0.79685871  0.28437486    -0.03100
Br993      Br  0.29571171  0.82436316  0.30868764    -0.01600
Br994      Br  0.27116694  0.88817199  0.27851881    -0.01700
Br995      Br  0.26534854  0.67541480  0.25383631    -0.01700
Br996      Br  0.24766438  0.74415134  0.22316095    -0.01600
C997        C  0.15005524  0.22880331  0.25899028    -0.02800
C998        C  0.12016317  0.24619037  0.25057973     0.06900
C999        C  0.06707025  0.21383823  0.24959509    -0.02900
C1000       C  0.04366424  0.16507258  0.25756024    -0.02900
C1001       C  0.07380298  0.14624943  0.26543959     0.07000
C1002       C  0.12776108  0.17798487  0.26485215    -0.03100
Br1003     Br  0.17323020  0.15280692  0.27067645    -0.01600
Br1004     Br  0.22118654  0.27567300  0.26393484    -0.01700
Br1005     Br  0.97011178  0.12731026  0.25799797    -0.01700
Br1006     Br  0.02549283  0.23818262  0.23878406    -0.01600
C1007       C  0.04889036  0.34352461  0.20339070    -0.02800
C1008       C  0.08553950  0.32757513  0.20192770     0.06900
C1009       C  0.08840399  0.30577364  0.18481152    -0.02900
C1010       C  0.06134112  0.30745430  0.16951133    -0.02900
C1011       C  0.02853780  0.32702532  0.17108181     0.07000
C1012       C  0.02179050  0.34440911  0.18798103    -0.03100
Br1013     Br  0.97367330  0.36810629  0.18990053    -0.01600
Br1014     Br  0.02744991  0.35548676  0.22673606    -0.01700
Br1015     Br  0.06570296  0.27892810  0.14620289    -0.01700
Br1016     Br  0.12214407  0.26703690  0.18085459    -0.01600
C1017       C  0.19739989  0.49993739  0.27236415    -0.02800
C1018       C  0.25066176  0.52915048  0.27527810     0.06900
C1019       C  0.28165477  0.51129010  0.26780427    -0.02900
C1020       C  0.25989833  0.46363988  0.25909379    -0.02900
C1021       C  0.20777311  0.43755886  0.25397327     0.07000
C1022       C  0.17610544  0.45359903  0.26243756    -0.03100
Br1023     Br  0.10379362  0.40750224  0.26445282    -0.01600
Br1024     Br  0.15210457  0.52115319  0.28239560    -0.01700
Br1025     Br  0.29917626  0.42944263  0.25969760    -0.01700
Br1026     Br  0.35495023  0.55248395  0.26845409    -0.01600
C1027       C  0.76795425  0.84178462  0.26195947    -0.02800
C1028       C  0.75487583  0.86850702  0.24933395     0.06900
C1029       C  0.79384903  0.91641990  0.24311971    -0.02900
C1030       C  0.84350343  0.93872794  0.25055620    -0.02900
C1031       C  0.85469128  0.91440907  0.26461969     0.07000
C1032       C  0.81683273  0.86503849  0.26993417    -0.03100
Br1033     Br  0.82976727  0.82958788  0.28909988    -0.01600
Br1034     Br  0.72051423  0.77144916  0.26750915    -0.01700
Br1035     Br  0.89714642  0.00186590  0.24095263    -0.01700
Br1036     Br  0.78004960  0.95297886  0.22481299    -0.01600
C1037       C  0.65036733  0.90387381  0.17151413    -0.02800
C1038       C  0.65848897  0.95259274  0.17568296     0.06900
C1039       C  0.66262220  0.96825868  0.19407105    -0.02900
C1040       C  0.65901869  0.93534692  0.20820620    -0.02900
C1041       C  0.65060033  0.88613925  0.20410197     0.07000
C1042       C  0.64597976  0.87080846  0.18560826    -0.03100
Br1043     Br  0.63210028  0.80433893  0.17880175    -0.01600
Br1044     Br  0.64854349  0.88314482  0.14632235    -0.01700
Br1045     Br  0.66856224  0.95952113  0.23307002    -0.01700
Br1046     Br  0.67229884  0.03464470  0.19996296    -0.01600
C1047       C  0.54489045  0.72873276  0.26904553    -0.02800
C1048       C  0.56324422  0.77611322  0.26000038     0.06900
C1049       C  0.53990389  0.80501898  0.26486576    -0.02900
C1050       C  0.49276337  0.78242023  0.27405508    -0.02900
C1051       C  0.47132400  0.73275696  0.28119890     0.07000
C1052       C  0.49873636  0.70666679  0.27898897    -0.03100
Br1053     Br  0.47590364  0.64160308  0.29048695    -0.01600
Br1054     Br  0.58664987  0.69764222  0.27136819    -0.01700
Br1055     Br  0.45725021  0.82018606  0.27601719    -0.01700
Br1056     Br  0.57652400  0.87827352  0.26323087    -0.01600
C1057       C  0.70658718  0.75431313  0.20225464    -0.02800
C1058       C  0.65686732  0.74090573  0.20788960     0.06900
C1059       C  0.61487324  0.70255071  0.19768623    -0.02900
C1060       C  0.62332923  0.67958775  0.18224922    -0.02900
C1061       C  0.67318222  0.69803919  0.17557884     0.07000
C1062       C  0.71460173  0.73692081  0.18547232    -0.03100
Br1063     Br  0.78275356  0.77174061  0.17537507    -0.01600
Br1064     Br  0.76493889  0.79356910  0.21778729    -0.01700
Br1065     Br  0.56578409  0.62291263  0.17035410    -0.01700
Br1066     Br  0.54537820  0.68585194  0.20222435    -0.01600
C1067       C  0.03159538  0.69089376  0.19247243    -0.02800
C1068       C  0.04201535  0.70750014  0.17425438     0.06900
C1069       C  0.08732500  0.75247963  0.17004470    -0.02900
C1070       C  0.12246448  0.78046048  0.18392688    -0.02900
C1071       C  0.11134623  0.76579518  0.20242996     0.07000
C1072       C  0.06584750  0.71996562  0.20655441    -0.03100
Br1073     Br  0.04940814  0.69634485  0.23139310    -0.01600
Br1074     Br  0.97081478  0.62731900  0.19798962    -0.01700
Br1075     Br  0.18762768  0.83516787  0.17668377    -0.01700
Br1076     Br  0.10031394  0.77723486  0.14521642    -0.01600
C1077       C  0.83433824  0.61385569  0.15495250    -0.02800
C1078       C  0.87692696  0.65172784  0.14559863     0.06900
C1079       C  0.87331494  0.68900616  0.13551440    -0.02900
C1080       C  0.82688218  0.68829638  0.13465829    -0.02900
C1081       C  0.78417011  0.65038394  0.14395824     0.07000
C1082       C  0.78791259  0.61341087  0.15424682    -0.03100
Br1083     Br  0.72938683  0.56223952  0.16724462    -0.01600
Br1084     Br  0.83975801  0.56265225  0.16855173    -0.01700
Br1085     Br  0.82242638  0.74073898  0.12150260    -0.01700
Br1086     Br  0.93253187  0.74191186  0.12333670    -0.01600
C1087       C  0.31192538  0.96147129  0.18026292    -0.02800
C1088       C  0.28625326  0.98583166  0.17340129     0.06900
C1089       C  0.24461922  0.98194057  0.18343860    -0.02900
C1090       C  0.23069888  0.95626490  0.20021916    -0.02900
C1091       C  0.25067463  0.92503592  0.20566668     0.07000
C1092       C  0.29226786  0.92845618  0.19540661    -0.03100
Br1093     Br  0.31919611  0.88362898  0.19948974    -0.01600
Br1094     Br  0.37496522  0.97362938  0.16929090    -0.01700
Br1095     Br  0.18650738  0.96831390  0.21576360    -0.01700
Br1096     Br  0.20154292  0.00647323  0.17375331    -0.01600
C1097       C  0.23155218  0.37334162  0.18518974    -0.02800
C1098       C  0.23048684  0.34460566  0.20051652     0.06900
C1099       C  0.25150108  0.31297743  0.19905221    -0.02900
C1100       C  0.27520907  0.31146612  0.18284415    -0.02900
C1101       C  0.26981123  0.33408976  0.16668472     0.07000
C1102       C  0.24723920  0.36490223  0.16802811    -0.03100
Br1103     Br  0.23178655  0.39116721  0.14652557    -0.01600
Br1104     Br  0.20850556  0.42191504  0.18709913    -0.01700
Br1105     Br  0.31786474  0.28106370  0.18399642    -0.01700
Br1106     Br  0.24646909  0.26984442  0.21898028    -0.01600
C1107       C  0.34688369  0.17619171  0.14403564    -0.02800
C1108       C  0.30637136  0.13013784  0.13730336     0.06900
C1109       C  0.26618739  0.12935313  0.12752452    -0.02900
C1110       C  0.26552251  0.17471661  0.12507050    -0.02900
C1111       C  0.30588177  0.22066721  0.13186690     0.07000
C1112       C  0.34715410  0.22175419  0.14097464    -0.03100
Br1113     Br  0.40428679  0.28574114  0.14897677    -0.01600
Br1114     Br  0.40207315  0.17676304  0.15727155    -0.01700
Br1115     Br  0.20921430  0.17416167  0.11275795    -0.01700
Br1116     Br  0.21186206  0.06605785  0.11782994    -0.01600
C1117       C  0.37644833  0.85087164  0.92976094    -0.02800
C1118       C  0.39568747  0.81711842  0.92958541     0.06900
C1119       C  0.44126013  0.83146140  0.91991992    -0.02900
C1120       C  0.46911811  0.88023444  0.91195465    -0.02900
C1121       C  0.45370694  0.91649842  0.91456109     0.07000
C1122       C  0.40675668  0.90118485  0.92338715    -0.03100
Br1123     Br  0.38309098  0.94892639  0.92677850    -0.01600
Br1124     Br  0.30971995  0.82998424  0.93949289    -0.01700
Br1125     Br  0.52943343  0.89768234  0.89812278    -0.01700
Br1126     Br  0.46527796  0.78380860  0.91721548    -0.01600
C1127       C  0.16852060  0.61069010  0.92010921    -0.02800
C1128       C  0.18253962  0.58642586  0.93340321     0.06900
C1129       C  0.14764163  0.53491936  0.93760446    -0.02900
C1130       C  0.09893900  0.50914328  0.92933632    -0.02900
C1131       C  0.08404316  0.53394803  0.91650689     0.07000
C1132       C  0.12014581  0.58436025  0.91147330    -0.03100
Br1133     Br  0.10359765  0.61852430  0.89308280    -0.01600
Br1134     Br  0.21588374  0.68040351  0.91360985    -0.01700
Br1135     Br  0.05332146  0.43853307  0.93531507    -0.01700
Br1136     Br  0.16427944  0.49973325  0.95577997    -0.01600
C1137       C  0.49186398  0.60538677  0.93015517    -0.02800
C1138       C  0.46512017  0.56233561  0.91859316     0.06900
C1139       C  0.41454728  0.54755206  0.91357145    -0.02900
C1140       C  0.38957522  0.57169448  0.92152854    -0.02900
C1141       C  0.41561409  0.61285330  0.93382753     0.07000
C1142       C  0.46767338  0.63089239  0.93744808    -0.03100
Br1143     Br  0.50630312  0.68924796  0.95321498    -0.01600
Br1144     Br  0.56298176  0.63191403  0.93548948    -0.01700
Br1145     Br  0.31954220  0.54881507  0.91536632    -0.01700
Br1146     Br  0.37851009  0.49379928  0.89600768    -0.01600
C1147       C  0.61638448  0.17573555  0.03283412    -0.02800
C1148       C  0.58681066  0.18948769  0.02186891     0.06900
C1149       C  0.53371278  0.15522633  0.02068311    -0.02900
C1150       C  0.51092717  0.10851403  0.03016739    -0.02900
C1151       C  0.54084703  0.09351806  0.04028291     0.07000
C1152       C  0.59355193  0.12812725  0.04191690    -0.03100
Br1153     Br  0.63477547  0.10983471  0.05628556    -0.01600
Br1154     Br  0.68858507  0.22206355  0.03547140    -0.01700
Br1155     Br  0.43767816  0.06597632  0.02980231    -0.01700
Br1156     Br  0.49189905  0.16879628  0.00447859    -0.01600
C1157       C  0.62805700  0.99382742  0.09846356    -0.02800
C1158       C  0.61202425  0.99519756  0.11643762     0.06900
C1159       C  0.56266829  0.98664119  0.11944665    -0.02900
C1160       C  0.53034833  0.97893935  0.10455815    -0.02900
C1161       C  0.54767542  0.98211694  0.08643487     0.07000
C1162       C  0.59586144  0.98685101  0.08350993    -0.03100
Br1163     Br  0.61799843  0.98303743  0.05915367    -0.01600
Br1164     Br  0.69388292  0.00044667  0.09435461    -0.01700
Br1165     Br  0.46086824  0.95876623  0.10952171    -0.01700
Br1166     Br  0.53999823  0.98844119  0.14397865    -0.01600
C1167       C  0.34022358  0.96969624  0.10326552    -0.02800
C1168       C  0.35951256  0.01907858  0.11037666     0.06900
C1169       C  0.40224929  0.06021838  0.10201347    -0.02900
C1170       C  0.42559228  0.05198607  0.08681428    -0.02900
C1171       C  0.40957249  0.00180641  0.08049565     0.07000
C1172       C  0.36548536  0.96058563  0.08880308    -0.03100
Br1173     Br  0.34042202  0.88999344  0.08253644    -0.01600
Br1174     Br  0.27772842  0.91433603  0.11305894    -0.01700
Br1175     Br  0.47720509  0.11180003  0.07446891    -0.01700
Br1176     Br  0.43169690  0.12891386  0.11178846    -0.01600
C1177       C  0.40058902  0.80935838  0.02317771    -0.02800
C1178       C  0.39949357  0.81829078  0.00442662     0.06900
C1179       C  0.41307183  0.86754234  0.99867139    -0.02900
C1180       C  0.42705314  0.90727701  0.01138836    -0.02900
C1181       C  0.43634942  0.90105150  0.02995135     0.07000
C1182       C  0.41767761  0.84992962  0.03594362    -0.03100
Br1183     Br  0.40720061  0.83205996  0.06151264    -0.01600
Br1184     Br  0.37602677  0.74063362  0.03140787    -0.01700
Br1185     Br  0.41952965  0.96353244  0.00339921    -0.01700
Br1186     Br  0.41534713  0.88211605  0.97307230    -0.01600
C1187       C  0.84811601  0.38149467  0.01749246    -0.02800
C1188       C  0.81393611  0.39931972  0.02126190     0.06900
C1189       C  0.83044076  0.44193466  0.03297737    -0.02900
C1190       C  0.88012064  0.46662319  0.04053211    -0.02900
C1191       C  0.91524621  0.45090041  0.03582021     0.07000
C1192       C  0.89918029  0.40907988  0.02369374    -0.03100
Br1193     Br  0.94739682  0.39014309  0.01478385    -0.01600
Br1194     Br  0.82721191  0.32150730  0.00256937    -0.01700
Br1195     Br  0.90102334  0.52506615  0.05609340    -0.01700
Br1196     Br  0.78458106  0.46640292  0.03897989    -0.01600
C1197       C  0.01245447  0.60874843  0.08359276    -0.02800
C1198       C  0.00704156  0.55970353  0.08563480     0.06900
C1199       C  0.99430309  0.53688873  0.10324682    -0.02900
C1200       C  0.99086516  0.56379535  0.11837638    -0.02900
C1201       C  0.99611580  0.61187061  0.11606477     0.07000
C1202       C  0.00626454  0.63407100  0.09869675    -0.03100
Br1203     Br  0.01149207  0.69961782  0.09572670    -0.01600
Br1204     Br  0.02388067  0.64079944  0.05997770    -0.01700
Br1205     Br  0.97735619  0.53440589  0.14256739    -0.01700
Br1206     Br  0.97895437  0.46856921  0.10784591    -0.01600
C1207       C  0.04790691  0.42331007  0.09040931    -0.02800
C1208       C  0.01050037  0.41425552  0.07710343     0.06900
C1209       C  0.96335622  0.36837519  0.07808145    -0.02900
C1210       C  0.95151802  0.33536599  0.09309092    -0.02900
C1211       C  0.98807944  0.34700906  0.10723184     0.07000
C1212       C  0.03819602  0.38785236  0.10429949    -0.03100
Br1213     Br  0.09577743  0.39533828  0.11823375    -0.01600
Br1214     Br  0.10791161  0.48893113  0.09311842    -0.01700
Br1215     Br  0.88452546  0.27460435  0.09316343    -0.01700
Br1216     Br  0.91312070  0.35070283  0.05926991    -0.01600
C1217       C  0.20010323  0.59257844  0.02256234    -0.02800
C1218       C  0.19339830  0.61076767  0.00588052     0.06900
C1219       C  0.14731221  0.60964149  0.00252794    -0.02900
C1220       C  0.10720207  0.58773619  0.01534794    -0.02900
C1221       C  0.10999000  0.56037460  0.03069604     0.07000
C1222       C  0.15953297  0.56926963  0.03513663    -0.03100
Br1223     Br  0.17722813  0.56069214  0.05937101    -0.01600
Br1224     Br  0.26651225  0.60251409  0.02849124    -0.01700
Br1225     Br  0.05472202  0.60572445  0.01322414    -0.01700
Br1226     Br  0.13856109  0.63707230  0.98001160    -0.01600
C1227       C  0.59679213  0.49399878  0.03028013    -0.02800
C1228       C  0.54663808  0.46425867  0.03704700     0.06900
C1229       C  0.52776583  0.41165232  0.03980814    -0.02900
C1230       C  0.55480695  0.38818379  0.03328624    -0.02900
C1231       C  0.60262927  0.41726633  0.02478177     0.07000
C1232       C  0.62556868  0.47105120  0.02508444    -0.03100
Br1233     Br  0.69512701  0.51429380  0.01722516    -0.01600
Br1234     Br  0.62662949  0.56652204  0.02764027    -0.01700
Br1235     Br  0.52681542  0.31581389  0.03667423    -0.01700
Br1236     Br  0.46458587  0.37022064  0.05224073    -0.01600
C1237       C  0.60615698  0.62153832  0.08154160    -0.02800
C1238       C  0.56262477  0.57162493  0.08306219     0.06900
C1239       C  0.55598583  0.54580757  0.10010132    -0.02900
C1240       C  0.58904820  0.57071037  0.11495281    -0.02900
C1241       C  0.62892888  0.62104294  0.11343962     0.07000
C1242       C  0.63812419  0.64609238  0.09669937    -0.03100
Br1243     Br  0.69639737  0.71392006  0.09455115    -0.01600
Br1244     Br  0.62855674  0.65556795  0.05846030    -0.01700
Br1245     Br  0.58230450  0.53492833  0.13758263    -0.01700
Br1246     Br  0.50443715  0.47618239  0.10481475    -0.01600
C1247       C  0.39997724  0.46450666  0.09154056    -0.02800
C1248       C  0.40281593  0.44236286  0.07493036     0.06900
C1249       C  0.36533045  0.39169066  0.07115288    -0.02900
C1250       C  0.33443678  0.36042722  0.08536853    -0.02900
C1251       C  0.34104190  0.38002747  0.10341940     0.07000
C1252       C  0.37150250  0.43326349  0.10615676    -0.03100
Br1253     Br  0.37877018  0.46450140  0.12983848    -0.01600
Br1254     Br  0.43361845  0.53765718  0.09419974    -0.01700
Br1255     Br  0.28152117  0.29159271  0.07970752    -0.01700
Br1256     Br  0.35242712  0.36690850  0.04630498    -0.01600
C1257       C  0.39109938  0.55653593  0.00299092    -0.02800
C1258       C  0.40700225  0.60887871  0.00407807     0.06900
C1259       C  0.45159607  0.64126308  0.01411855    -0.02900
C1260       C  0.47876204  0.62150298  0.02332344    -0.02900
C1261       C  0.45855094  0.56809730  0.02469983     0.07000
C1262       C  0.41695924  0.53652242  0.01286850    -0.03100
Br1263     Br  0.39649047  0.46566731  0.00876814    -0.01600
Br1264     Br  0.33564732  0.51178044  0.98696000    -0.01700
Br1265     Br  0.54921963  0.66887509  0.02847847    -0.01700
Br1266     Br  0.47636773  0.71360922  0.01548553    -0.01600
loop_ 
_geom_bond_atom_site_label_1 
_geom_bond_atom_site_label_2 
_geom_bond_distance 
_geom_bond_site_symmetry_2 
_ccdc_geom_bond_type 
C1            C2   1.530       .  S
C1            C7   1.547       .  S
C1            C5   1.564       .  S
C1         C1261   1.564       .  S
C2            H9   1.088       .  S
C2            C3   1.351       .  D
C3            C4   1.558       .  S
C3         C1248   1.487       .  S
C4            C8   1.537       .  S
C4            C6   1.543       .  S
C4           H10   1.097       .  S
C5           H11   1.079       .  S
C5            C6   1.386       .  D
C6         C1238   1.531       .  S
C7           H12   1.086       .  S
C7            C8   1.370       .  D
C8         C1228   1.513       .  S
C13          C14   1.536       .  S
C13          C19   1.549       .  S
C13          C17   1.553       .  S
C13        C1221   1.567       .  S
C14          H21   1.085       .  S
C14          C15   1.371       .  D
C15          C16   1.546   1_455  S
C15        C1198   1.511       .  S
C16          C20   1.544       .  S
C16          C18   1.550   1_655  S
C16          H22   1.108       .  S
C17          H23   1.084       .  S
C17          C18   1.377       .  D
C18        C1208   1.506       .  S
C19          H24   1.084       .  S
C19          C20   1.364   1_455  D
C20        C1191   1.509       .  S
C25          C26   1.543       .  S
C25          C31   1.544       .  S
C25          C29   1.540       .  S
C25        C1181   1.557       .  S
C26          H33   1.085       .  S
C26          C27   1.362       .  D
C27          C28   1.545   1_565  S
C27        C1161   1.499       .  S
C28          C32   1.558       .  S
C28          C30   1.552   1_545  S
C28          H34   1.106       .  S
C29          H35   1.083       .  S
C29          C30   1.372       .  D
C30        C1171   1.519   1_565  S
C31          H36   1.083   1_565  S
C31          C32   1.367   1_565  D
C32        C1151   1.510       .  S
O37          C52   1.259       .  A
O37         Al45   1.914       .  S
C38          O48   1.264       .  A
C38          O39   1.264       .  A
C38        C1128   1.502       .  S
O39         Al41   1.919       .  S
O40          C42   1.267       .  A
O40         Al41   1.935       .  S
Al41         O49   1.920       .  S
Al41         O51   1.919       .  S
Al41         O50   1.787       .  S
C42          O55   1.265       .  A
C42        C1141   1.496       .  S
O43          C53   1.262       .  A
O43         Al45   1.915       .  S
O44          C57   1.267       .  A
O44         Al54   1.935       .  S
Al45         O58   1.908       .  S
Al45         O55   1.911       .  S
Al45         O50   1.791       .  S
O46          C53   1.264       .  A
O46         Al54   1.925       .  S
O47          C56   1.263       .  A
O47         Al54   1.911       .  S
O48         Al54   1.926       .  S
O49          C56   1.263       .  A
O50         Al54   1.792       .  S
O51          C52   1.262       .  A
C52        C1258   1.497   1_556  S
C53        C1118   1.498       .  S
C56        C1218   1.486   1_556  S
C57          O58   1.263       .  A
C57        C1178   1.488   1_556  S
C59        C1101   1.494       .  S
C59          N60   1.365       .  A
C59          N64   1.350       .  A
N60          C61   1.367       .  A
C61        C1251   1.489       .  S
C61          N62   1.358       .  A
N62          C63   1.349       .  A
C63        C1111   1.454       .  S
C63          N64   1.345       .  A
C65        C1168   1.486       .  S
C65          N66   1.350       .  A
C65          N70   1.367       .  A
N66          C67   1.346       .  A
C67        C1108   1.455       .  S
C67          N68   1.351       .  A
N68          C69   1.357       .  A
C69        C1088   1.499   1_545  S
C69          N70   1.368       .  A
C71        C1201   1.472       .  S
C71          N72   1.354       .  A
C71          N76   1.360   1_655  A
N72          C73   1.353       .  A
C73        C1078   1.463       .  S
C73          N74   1.355       .  A
N74          C75   1.357   1_655  A
C75        C1068   1.476       .  S
C75          N76   1.362       .  A
C77        C1061   1.493       .  S
C77          N78   1.355       .  A
C77          N82   1.365       .  A
N78          C79   1.351       .  A
C79        C1081   1.464       .  S
C79          N80   1.354       .  A
N80          C81   1.357       .  A
C81        C1241   1.476       .  S
C81          N82   1.365       .  A
C83          C84   1.547       .  S
C83          C89   1.536       .  S
C83          C87   1.550       .  S
C83        C1048   1.562       .  S
C84          H91   1.084       .  S
C84          C85   1.363       .  D
C85          C86   1.540       .  S
C85        C1041   1.497       .  S
C86          C90   1.550       .  S
C86          C88   1.548       .  S
C86          H92   1.108       .  S
C87          H93   1.080       .  S
C87          C88   1.371       .  D
C88        C1058   1.511       .  S
C89          H94   1.086       .  S
C89          C90   1.371       .  D
C90        C1028   1.507       .  S
C95          C96   1.542       .  S
C95         C101   1.528       .  S
C95          C99   1.553       .  S
C95        C1021   1.545       .  S
C96         H103   1.086       .  S
C96          C97   1.360       .  D
C97          C98   1.543       .  S
C97        C1098   1.487       .  S
C98         C102   1.536       .  S
C98         C100   1.543       .  S
C98         H104   1.096       .  S
C99         H105   1.084       .  S
C99         C100   1.386       .  D
C100       C1008   1.521       .  S
C101        H106   1.087       .  S
C101        C102   1.355       .  D
C102        C998   1.489       .  S
C107        C108   1.545       .  S
C107        C113   1.545       .  S
C107        C111   1.541       .  S
C107        C988   1.560       .  S
C108        H115   1.082       .  S
C108        C109   1.361       .  D
C109        C110   1.539       .  S
C109       C1071   1.501       .  S
C110        C114   1.552       .  S
C110        C112   1.550       .  S
C110        H116   1.107       .  S
C111        H117   1.083       .  S
C111        C112   1.374       .  D
C112       C1091   1.518       .  S
C113        H118   1.085       .  S
C113        C114   1.370       .  D
C114        C978   1.502       .  S
O119        C134   1.264       .  A
O119       Al127   1.911       .  S
C120        O130   1.260       .  A
C120        O121   1.268       .  A
C120        C948   1.500       .  S
O121       Al123   1.946       .  S
O122        C124   1.266       .  A
O122       Al123   1.930       .  S
Al123       O131   1.904       .  S
Al123       O133   1.944       .  S
Al123       O132   1.788       .  S
C124        O137   1.260       .  A
C124        C968   1.525       .  S
O125        C135   1.267       .  A
O125       Al127   1.908       .  S
O126        C139   1.257       .  A
O126       Al136   1.912       .  S
Al127       O140   1.909       .  S
Al127       O137   1.921       .  S
Al127       O132   1.785       .  S
O128        C135   1.266       .  A
O128       Al136   1.923       .  S
O129        C138   1.260       .  A
O129       Al136   1.908       .  S
O130       Al136   1.902       .  S
O131        C138   1.262       .  A
O132       Al136   1.784       .  S
O133        C134   1.270       .  A
C134       C1051   1.503       .  S
C135        C958   1.514       .  S
C138        C991   1.477       .  S
C139        O140   1.258       .  A
C139       C1018   1.496       .  S
C141       C1211   1.507       .  S
C141        N142   1.364   1_655  A
C141        N146   1.355       .  A
N142        C143   1.361   1_455  A
C143       C1011   1.463   1_655  S
C143        N144   1.350       .  A
N144        C145   1.346       .  A
C145        C938   1.458       .  S
C145        N146   1.352       .  A
C147       C1038   1.475       .  S
C147        N148   1.361       .  A
C147        N152   1.353   1_565  A
N148        C149   1.361   1_565  A
C149       C1158   1.479   1_545  S
C149        N150   1.355       .  A
N150        C151   1.355       .  A
C151        C941   1.464       .  S
C151        N152   1.352       .  A
C153        C154   1.556       .  S
C153        C159   1.531       .  S
C153        C157   1.535       .  S
C153        C928   1.559       .  S
C154        H161   1.084       .  S
C154        C155   1.386       .  D
C155        C156   1.547       .  S
C155        C918   1.519       .  S
C156        C160   1.545       .  S
C156        C158   1.549       .  S
C156        H162   1.102       .  S
C157        H163   1.086       .  S
C157        C158   1.358       .  D
C158        C908   1.489       .  S
C159        H164   1.086       .  S
C159        C160   1.364       .  D
C160        C898   1.510       .  S
C165        C166   1.552       .  S
C165        C171   1.523       .  S
C165        C169   1.551       .  S
C165        C888   1.552       .  S
C166        H173   1.079       .  S
C166        C167   1.368       .  D
C167        C168   1.538       .  S
C167        C878   1.515       .  S
C168        C172   1.563       .  S
C168        C170   1.543       .  S
C168        H174   1.097       .  S
C169        H175   1.081       .  S
C169        C170   1.373       .  D
C170        C868   1.520       .  S
C171        H176   1.087       .  S
C171        C172   1.359       .  D
C172        C858   1.499       .  S
C177        C178   1.536       .  S
C177        C183   1.548       .  S
C177        C181   1.548       .  S
C177        C848   1.566       .  S
C178        H185   1.086       .  S
C178        C179   1.367       .  D
C179        C180   1.549       .  S
C179        C828   1.498       .  S
C180        C184   1.546       .  S
C180        C182   1.550       .  S
C180        H186   1.102       .  S
C181        H187   1.083       .  S
C181        C182   1.382       .  D
C182        C838   1.518       .  S
C183        H188   1.084       .  S
C183        C184   1.362       .  D
C184        C821   1.512       .  S
O189        C204   1.260       .  A
O189       Al197   1.922   1_545  S
C190        O200   1.268       .  A
C190        O191   1.269       .  A
C190        C801   1.529       .  S
O191       Al193   1.952   1_655  S
O192        C194   1.264       .  A
O192       Al193   1.913       .  S
Al193       O201   1.914       .  S
Al193       O203   1.937       .  S
Al193       O202   1.778       .  S
C194        O207   1.269       .  A
C194        C791   1.497       .  S
O195        C205   1.261   1_455  A
O195       Al197   1.910       .  S
O196        C209   1.265       .  A
O196       Al206   1.915       .  S
Al197       O210   1.927   1_455  S
Al197       O207   1.932   1_565  S
Al197       O202   1.785   1_565  S
O198        C205   1.266       .  A
O198       Al206   1.935       .  S
O199        C208   1.265       .  A
O199       Al206   1.929   1_545  S
O200       Al206   1.934   1_545  S
O201        C208   1.263   1_455  A
O202       Al206   1.778   1_445  S
O203        C204   1.267       .  A
C204        C851   1.497       .  S
C205        C808   1.498       .  S
C208        C891   1.498       .  S
C209        O210   1.265       .  A
C209        C931   1.503       .  S
C211        C841   1.476       .  S
C211        N212   1.354       .  A
C211        N216   1.366   1_545  A
N212        C213   1.351   1_545  A
C213        C778   1.459       .  S
C213        N214   1.352       .  A
N214        C215   1.355       .  A
C215        C771   1.477       .  S
C215        N216   1.365       .  A
C217        C881   1.502       .  S
C217        N218   1.356       .  A
C217        N222   1.369       .  A
N218        C219   1.351   1_545  A
C219        C781   1.460       .  S
C219        N220   1.349       .  A
N220        C221   1.353       .  A
C221        C758   1.477       .  S
C221        N222   1.367   1_565  A
C223        C871   1.492       .  S
C223        N224   1.356       .  A
C223        N228   1.366       .  A
N224        C225   1.349       .  A
C225        C748   1.457   1_655  S
C225        N226   1.349   1_655  A
N226        C227   1.354       .  A
C227        C738   1.472       .  S
C227        N228   1.366   1_455  A
C229        C921   1.472       .  S
C229        N230   1.361       .  A
C229        N234   1.353       .  A
N230        C231   1.361   1_655  A
C231        C728   1.504       .  S
C231        N232   1.355       .  A
N232        C233   1.353       .  A
C233        C751   1.458       .  S
C233        N234   1.350   1_455  A
C235        C911   1.503       .  S
C235        N236   1.356       .  A
C235        N240   1.363       .  A
N236        C237   1.353       .  A
C237        C721   1.478       .  S
C237        N238   1.354       .  A
N238        C239   1.359       .  A
C239        C708   1.493       .  S
C239        N240   1.363       .  A
C241        C831   1.508       .  S
C241        N242   1.354       .  A
C241        N246   1.363       .  A
N242        C243   1.353       .  A
C243        C718   1.482       .  S
C243        N244   1.356       .  A
N244        C245   1.360       .  A
C245        C701   1.496       .  S
C245        N246   1.364       .  A
C247        C248   1.536       .  S
C247        C253   1.547       .  S
C247        C251   1.554       .  S
C247        C688   1.572       .  S
C248        H255   1.087       .  S
C248        C249   1.359       .  D
C249        C250   1.545       .  S
C249        C731   1.485       .  S
C250        C254   1.546       .  S
C250        C252   1.545       .  S
C250        H256   1.104       .  S
C251        H257   1.090       .  S
C251        C252   1.376       .  D
C252        C768   1.515       .  S
C253        H258   1.087       .  S
C253        C254   1.371       .  D
C254        C951   1.522       .  S
C259        C260   1.532       .  S
C259        C265   1.536       .  S
C259        C263   1.559       .  S
C259        C678   1.560       .  S
C260        H267   1.087       .  S
C260        C261   1.357       .  D
C261        C262   1.560       .  S
C261        C698   1.490       .  S
C262        C266   1.543       .  S
C262        C264   1.547       .  S
C262        H268   1.097       .  S
C263        H269   1.080       .  S
C263        C264   1.383       .  D
C264        C741   1.527       .  S
C265        H270   1.087       .  S
C265        C266   1.365       .  D
C266        C961   1.512       .  S
C271        C272   1.543       .  S
C271        C277   1.548       .  S
C271        C275   1.539       .  S
C271        C671   1.553       .  S
C272        H279   1.085       .  S
C272        C273   1.377       .  D
C273        C274   1.550       .  S
C273        C761   1.527       .  S
C274        C278   1.546       .  S
C274        C276   1.556       .  S
C274        H280   1.099       .  S
C275        H281   1.084       .  S
C275        C276   1.358       .  D
C276        C711   1.493       .  S
C277        H282   1.084       .  S
C277        C278   1.365       .  D
C278        C971   1.511       .  S
O283        C298   1.268       .  A
O283       Al291   1.937   1_455  S
C284        O294   1.267       .  A
C284        O285   1.267   1_565  A
C284        C981   1.494       .  S
O285       Al287   1.912       .  S
O286        C288   1.261       .  A
O286       Al287   1.919       .  S
Al287       O295   1.920   1_545  S
Al287       O297   1.908       .  S
Al287       O296   1.784   1_445  S
C288        O301   1.260       .  A
C288       C1001   1.507       .  S
O289        C299   1.263       .  A
O289       Al291   1.919   1_565  S
O290        C303   1.262       .  A
O290       Al300   1.913       .  S
Al291       O304   1.892       .  S
Al291       O301   1.911   1_655  S
Al291       O296   1.784   1_545  S
O292        C299   1.262       .  A
O292       Al300   1.911       .  S
O293        C302   1.260   1_655  A
O293       Al300   1.909       .  S
O294       Al300   1.931   1_455  S
O295        C302   1.260       .  A
O296       Al300   1.780       .  S
O297        C298   1.264       .  A
C298        C681   1.492       .  S
C299       C1031   1.492       .  S
C302        C691   1.493       .  S
C303        O304   1.260   1_565  A
C303        C668   1.473       .  S
C305        C306   1.535       .  S
C305        C311   1.534       .  S
C305        C309   1.555       .  S
C305        C658   1.559       .  S
C306        H313   1.085       .  S
C306        C307   1.358       .  D
C307        C308   1.544       .  S
C307        C638   1.483       .  S
C308        C312   1.544       .  S
C308        C310   1.544       .  S
C308        H314   1.101       .  S
C309        H315   1.085       .  S
C309        C310   1.385       .  D
C310        C648   1.522       .  S
C311        H316   1.086       .  S
C311        C312   1.364       .  D
C312        C811   1.505       .  S
C317        C318   1.540       .  S
C317        C323   1.533       .  S
C317        C321   1.553       .  S
C317        C628   1.556       .  S
C318        H325   1.085       .  S
C318        C319   1.356       .  D
C319        C320   1.543       .  S
C319        C618   1.487       .  S
C320        C324   1.543       .  S
C320        C322   1.548       .  S
C320        H326   1.100       .  S
C321        H327   1.084       .  S
C321        C322   1.387       .  D
C322        C611   1.524       .  S
C323        H328   1.086       .  S
C323        C324   1.363       .  D
C324        C788   1.503       .  S
C329        C330   1.548       .  S
C329        C335   1.546       .  S
C329        C333   1.539       .  S
C329        C598   1.559       .  S
C330        H337   1.084       .  S
C330        C331   1.362       .  D
C331        C332   1.546       .  S
C331        C578   1.506       .  S
C332        C336   1.561       .  S
C332        C334   1.553       .  S
C332        H338   1.107       .  S
C333        H339   1.082       .  S
C333        C334   1.370       .  D
C334        C588   1.517       .  S
C335        H340   1.084       .  S
C335        C336   1.369       .  D
C336        C798   1.515       .  S
O341        C356   1.265       .  A
O341       Al349   1.932       .  S
C342        O352   1.263       .  A
C342        O343   1.265       .  A
C342        C861   1.514       .  S
O343       Al345   1.931       .  S
O344        C346   1.267       .  A
O344       Al345   1.930       .  S
Al345       O353   1.909       .  S
Al345       O355   1.926       .  S
Al345       O354   1.793       .  S
C346        O359   1.261       .  A
C346        C901   1.512       .  S
O347        C357   1.263       .  A
O347       Al349   1.910       .  S
O348        C361   1.262       .  A
O348       Al358   1.924       .  S
Al349       O362   1.912       .  S
Al349       O359   1.907       .  S
Al349       O354   1.782       .  S
O350        C357   1.264       .  A
O350       Al358   1.932       .  S
O351        C360   1.262       .  A
O351       Al358   1.917       .  S
O352       Al358   1.918       .  S
O353        C360   1.263       .  A
O354       Al358   1.793       .  S
O355        C356   1.265       .  A
C356        C661   1.512       .  S
C357        C818   1.497       .  S
C360        C601   1.480       .  S
C361        O362   1.262       .  A
C361        C631   1.501       .  S
C363        C558   1.475   1_565  S
C363        N364   1.352       .  A
C363        N368   1.361   1_565  A
N364        C365   1.353       .  A
C365        C568   1.454       .  S
C365        N366   1.355       .  A
N366        C367   1.355   1_565  A
C367        C581   1.475       .  S
C367        N368   1.360       .  A
C369        C651   1.465       .  S
C369        N370   1.351       .  A
C369        N374   1.363       .  A
N370        C371   1.346       .  A
C371        C571   1.451       .  S
C371        N372   1.347       .  A
N372        C373   1.354       .  A
C373        C548   1.494       .  S
C373        N374   1.365       .  A
C375        C528   1.487       .  S
C375        N376   1.354       .  A
C375        N380   1.364   1_565  A
N376        C377   1.348       .  A
C377        C538   1.459       .  S
C377        N378   1.351       .  A
N378        C379   1.356   1_565  A
C379        C608   1.471       .  S
C379        N380   1.364       .  A
C381        C641   1.496       .  S
C381        N382   1.352   1_655  A
C381        N386   1.362       .  A
N382        C383   1.349       .  A
C383        C541   1.460       .  S
C383        N384   1.353       .  A
N384        C385   1.358       .  A
C385        C518   1.479   1_455  S
C385        N386   1.364   1_455  A
C387        C498   1.476       .  S
C387        N388   1.353       .  A
C387        N392   1.366       .  A
N388        C389   1.349       .  A
C389        C508   1.455       .  S
C389        N390   1.351       .  A
N390        C391   1.355       .  A
C391        C621   1.494       .  S
C391        N392   1.365       .  A
C393        C591   1.493   1_455  S
C393        N394   1.369   1_455  A
C393        N398   1.353       .  A
N394        C395   1.369   1_655  A
C395        C488   1.493   1_455  S
C395        N396   1.353       .  A
N396        C397   1.346       .  A
C397        C511   1.454       .  S
C397        N398   1.347       .  A
C399        C400   1.542       .  S
C399        C405   1.554       .  S
C399        C403   1.534       .  S
C399        C481   1.564       .  S
C400        H407   1.082       .  S
C400        C401   1.367       .  D
C401        C402   1.543       .  S
C401        C501   1.507       .  S
C402        C406   1.547       .  S
C402        C404   1.550       .  S
C402        H408   1.108       .  S
C403        H409   1.085       .  S
C403        C404   1.367       .  D
C404        C551   1.500       .  S
C405        H410   1.084       .  S
C405        C406   1.373       .  D
C406       C1138   1.511       .  S
C411        C412   1.552       .  S
C411        C417   1.533       .  S
C411        C415   1.547       .  S
C411        C471   1.557       .  S
C412        H419   1.085       .  S
C412        C413   1.370       .  D
C413        C414   1.543   1_545  S
C413        C561   1.505       .  S
C414        C418   1.551       .  S
C414        C416   1.548   1_565  S
C414        H420   1.108       .  S
C415        H421   1.078       .  S
C415        C416   1.367       .  D
C416        C531   1.510       .  S
C417        H422   1.086       .  S
C417        C418   1.365   1_545  D
C418       C1121   1.502       .  S
C423        C424   1.539       .  S
C423        C429   1.551       .  S
C423        C427   1.542       .  S
C423        C461   1.563       .  S
C424        H431   1.085       .  S
C424        C425   1.367       .  D
C425        C426   1.546   1_655  S
C425        C521   1.500       .  S
C426        C430   1.550       .  S
C426        C428   1.553   1_455  S
C426        H432   1.109       .  S
C427        H433   1.085       .  S
C427        C428   1.371       .  D
C428        C491   1.510       .  S
C429        H434   1.078       .  S
C429        C430   1.367   1_655  D
C430       C1131   1.514       .  S
O435        C450   1.267       .  A
O435       Al443   1.935       .  S
C436        O446   1.266       .  A
C436        O437   1.268       .  A
C436       C1148   1.506       .  S
O437       Al439   1.928   1_554  S
O438        C440   1.266       .  A
O438       Al439   1.924   1_554  S
Al439       O447   1.929       .  S
Al439       O449   1.925       .  S
Al439       O448   1.788       .  S
C440        O453   1.263       .  A
C440       C1231   1.503       .  S
O441        C451   1.268       .  A
O441       Al443   1.938   1_554  S
O442        C455   1.263       .  A
O442       Al452   1.923       .  S
Al443       O456   1.921       .  S
Al443       O453   1.917   1_556  S
Al443       O448   1.787       .  S
O444        C451   1.264       .  A
O444       Al452   1.917   1_554  S
O445        C454   1.262       .  A
O445       Al452   1.911       .  S
O446       Al452   1.937   1_554  S
O447        C454   1.264       .  A
O448       Al452   1.784       .  S
O449        C450   1.266       .  A
C450        C478   1.502       .  S
C451       C1188   1.503       .  S
C454        C468   1.505       .  S
C455        O456   1.263       .  A
C455        C458   1.487       .  S
C457        C458   1.403       .  A
C457        C462   1.421       .  A
C457       Br464   1.930       .  S
C458        C459   1.400       .  A
C459        C460   1.401       .  A
C459       Br466   1.918       .  S
C460        C461   1.423       .  A
C460       Br465   1.930       .  S
C461        C462   1.436       .  A
C462       Br463   1.929       .  S
C467        C468   1.418       .  A
C467        C472   1.410       .  A
C467       Br474   1.936       .  S
C468        C469   1.421       .  A
C469        C470   1.417       .  A
C469       Br476   1.938       .  S
C470        C471   1.420       .  A
C470       Br475   1.930       .  S
C471        C472   1.421       .  A
C472       Br473   1.937       .  S
C477        C478   1.409       .  A
C477        C482   1.407       .  A
C477       Br484   1.915       .  S
C478        C479   1.408       .  A
C479        C480   1.420       .  A
C479       Br486   1.931       .  S
C480        C481   1.435       .  A
C480       Br485   1.934       .  S
C481        C482   1.419       .  A
C482       Br483   1.927       .  S
C487        C488   1.419   1_455  A
C487        C492   1.404       .  A
C487       Br494   1.941       .  S
C488        C489   1.411       .  A
C489        C490   1.416       .  A
C489       Br496   1.935       .  S
C490        C491   1.426       .  A
C490       Br495   1.924       .  S
C491        C492   1.410   1_655  A
C492       Br493   1.926       .  S
C497        C498   1.407       .  A
C497        C502   1.408       .  A
C497       Br504   1.933       .  S
C498        C499   1.403       .  A
C499        C500   1.410       .  A
C499       Br506   1.937       .  S
C500        C501   1.423       .  A
C500       Br505   1.916       .  S
C501        C502   1.420       .  A
C502       Br503   1.936       .  S
C507        C508   1.405       .  A
C507        C512   1.405       .  A
C507       Br514   1.927       .  S
C508        C509   1.406       .  A
C509        C510   1.397       .  A
C509       Br516   1.933       .  S
C510        C511   1.406       .  A
C510       Br515   1.933       .  S
C511        C512   1.407       .  A
C512       Br513   1.928       .  S
C517        C518   1.410       .  A
C517        C522   1.409       .  A
C517       Br524   1.932       .  S
C518        C519   1.406       .  A
C519        C520   1.408       .  A
C519       Br526   1.936   1_655  S
C520        C521   1.417       .  A
C520       Br525   1.918       .  S
C521        C522   1.418       .  A
C522       Br523   1.936       .  S
C527        C528   1.411       .  A
C527        C532   1.400       .  A
C527       Br534   1.941       .  S
C528        C529   1.411   1_565  A
C529        C530   1.414       .  A
C529       Br536   1.933       .  S
C530        C531   1.431       .  A
C530       Br535   1.939       .  S
C531        C532   1.416   1_545  A
C532       Br533   1.925       .  S
C537        C538   1.407       .  A
C537        C542   1.404       .  A
C537       Br544   1.929       .  S
C538        C539   1.406       .  A
C539        C540   1.402       .  A
C539       Br546   1.931       .  S
C540        C541   1.408       .  A
C540       Br545   1.932       .  S
C541        C542   1.406       .  A
C542       Br543   1.927       .  S
C547        C548   1.420       .  A
C547        C552   1.401       .  A
C547       Br554   1.941       .  S
C548        C549   1.416       .  A
C549        C550   1.413       .  A
C549       Br556   1.936       .  S
C550        C551   1.422       .  A
C550       Br555   1.930       .  S
C551        C552   1.409       .  A
C552       Br553   1.926       .  S
C557        C558   1.411       .  A
C557        C562   1.413       .  A
C557       Br564   1.932       .  S
C558        C559   1.401       .  A
C559        C560   1.402       .  A
C559       Br566   1.940       .  S
C560        C561   1.417       .  A
C560       Br565   1.905       .  S
C561        C562   1.417       .  A
C562       Br563   1.924       .  S
C567        C568   1.407       .  A
C567        C572   1.402       .  A
C567       Br574   1.928       .  S
C568        C569   1.405       .  A
C569        C570   1.399       .  A
C569       Br576   1.930       .  S
C570        C571   1.406       .  A
C570       Br575   1.931       .  S
C571        C572   1.404       .  A
C572       Br573   1.929       .  S
C577        C578   1.417       .  A
C577        C582   1.416       .  A
C577       Br584   1.928       .  S
C578        C579   1.416       .  A
C579        C580   1.402       .  A
C579       Br586   1.905       .  S
C580        C581   1.400       .  A
C580       Br585   1.938       .  S
C581        C582   1.410       .  A
C582       Br583   1.929   1_545  S
C587        C588   1.415       .  A
C587        C592   1.402       .  A
C587       Br594   1.929       .  S
C588        C589   1.434       .  A
C589        C590   1.418       .  A
C589       Br596   1.936       .  S
C590        C591   1.411       .  A
C590       Br595   1.936       .  S
C591        C592   1.415       .  A
C592       Br593   1.941       .  S
C597        C598   1.429       .  A
C597        C602   1.413       .  A
C597       Br604   1.930       .  S
C598        C599   1.433       .  A
C599        C600   1.412       .  A
C599       Br606   1.936       .  S
C600        C601   1.400       .  A
C600       Br605   1.933       .  S
C601        C602   1.405       .  A
C602       Br603   1.931       .  S
C607        C608   1.400       .  A
C607        C612   1.411       .  A
C607       Br614   1.943       .  S
C608        C609   1.401       .  A
C609        C610   1.410       .  A
C609       Br616   1.931   1_545  S
C610        C611   1.423       .  A
C610       Br615   1.928       .  S
C611        C612   1.437       .  A
C612       Br613   1.928       .  S
C617        C618   1.402       .  A
C617        C622   1.406       .  A
C617       Br624   1.928       .  S
C618        C619   1.418       .  A
C619        C620   1.412       .  A
C619       Br626   1.934       .  S
C620        C621   1.415       .  A
C620       Br625   1.933       .  S
C621        C622   1.421       .  A
C622       Br623   1.932       .  S
C627        C628   1.423       .  A
C627        C632   1.423       .  A
C627       Br634   1.927       .  S
C628        C629   1.420       .  A
C629        C630   1.400       .  A
C629       Br636   1.939       .  S
C630        C631   1.408       .  A
C630       Br635   1.924       .  S
C631        C632   1.417       .  A
C632       Br633   1.932       .  S
C637        C638   1.399       .  A
C637        C642   1.399       .  A
C637       Br644   1.928       .  S
C638        C639   1.419       .  A
C639        C640   1.413       .  A
C639       Br646   1.936       .  S
C640        C641   1.419       .  A
C640       Br645   1.935       .  S
C641        C642   1.422       .  A
C642       Br643   1.933   1_655  S
C647        C648   1.437       .  A
C647        C652   1.409       .  A
C647       Br654   1.927       .  S
C648        C649   1.422       .  A
C649        C650   1.408       .  A
C649       Br656   1.927       .  S
C650        C651   1.399       .  A
C650       Br655   1.932       .  S
C651        C652   1.399       .  A
C652       Br653   1.945       .  S
C657        C658   1.425       .  A
C657        C662   1.411       .  A
C657       Br664   1.940       .  S
C658        C659   1.419       .  A
C659        C660   1.418       .  A
C659       Br666   1.930       .  S
C660        C661   1.420       .  A
C660       Br665   1.929       .  S
C661        C662   1.416       .  A
C662       Br663   1.937       .  S
C667        C668   1.399       .  A
C667        C672   1.408       .  A
C667       Br674   1.935       .  S
C668        C669   1.406       .  A
C669        C670   1.412       .  A
C669       Br676   1.933       .  S
C670        C671   1.426       .  A
C670       Br675   1.935       .  S
C671        C672   1.430       .  A
C672       Br673   1.931       .  S
C677        C678   1.426       .  A
C677        C682   1.413       .  A
C677       Br684   1.924       .  S
C678        C679   1.431       .  A
C679        C680   1.412       .  A
C679       Br686   1.941       .  S
C680        C681   1.409       .  A
C680       Br685   1.935       .  S
C681        C682   1.408       .  A
C682       Br683   1.935   1_455  S
C687        C688   1.436       .  A
C687        C692   1.413       .  A
C687       Br694   1.934       .  S
C688        C689   1.435       .  A
C689        C690   1.417       .  A
C689       Br696   1.928       .  S
C690        C691   1.407       .  A
C690       Br695   1.938   1_565  S
C691        C692   1.406       .  A
C692       Br693   1.940   1_455  S
C697        C698   1.410       .  A
C697        C702   1.410       .  A
C697       Br704   1.933       .  S
C698        C699   1.404       .  A
C699        C700   1.410       .  A
C699       Br706   1.929       .  S
C700        C701   1.421       .  A
C700       Br705   1.933       .  S
C701        C702   1.419       .  A
C702       Br703   1.932       .  S
C707        C708   1.419       .  A
C707        C712   1.408       .  A
C707       Br714   1.935       .  S
C708        C709   1.416       .  A
C709        C710   1.410       .  A
C709       Br716   1.933       .  S
C710        C711   1.413       .  A
C710       Br715   1.929       .  S
C711        C712   1.404       .  A
C712       Br713   1.919       .  S
C717        C718   1.413       .  A
C717        C722   1.406       .  A
C717       Br724   1.934       .  S
C718        C719   1.414       .  A
C719        C720   1.410       .  A
C719       Br726   1.933       .  S
C720        C721   1.411       .  A
C720       Br725   1.932       .  S
C721        C722   1.411       .  A
C722       Br723   1.935       .  S
C727        C728   1.425       .  A
C727        C732   1.412       .  A
C727       Br734   1.938       .  S
C728        C729   1.428       .  A
C729        C730   1.407       .  A
C729       Br736   1.938       .  S
C730        C731   1.400       .  A
C730       Br735   1.932       .  S
C731        C732   1.415       .  A
C732       Br733   1.938       .  S
C737        C738   1.400       .  A
C737        C742   1.412       .  A
C737       Br744   1.940       .  S
C738        C739   1.400       .  A
C739        C740   1.411       .  A
C739       Br746   1.935   1_455  S
C740        C741   1.427       .  A
C740       Br745   1.924       .  S
C741        C742   1.434       .  A
C742       Br743   1.928       .  S
C747        C748   1.407       .  A
C747        C752   1.405       .  A
C747       Br754   1.928       .  S
C748        C749   1.405   1_455  A
C749        C750   1.399       .  A
C749       Br756   1.931       .  S
C750        C751   1.408   1_655  A
C750       Br755   1.934       .  S
C751        C752   1.406       .  A
C752       Br753   1.927       .  S
C757        C758   1.404       .  A
C757        C762   1.415       .  A
C757       Br764   1.931   1_565  S
C758        C759   1.400       .  A
C759        C760   1.410       .  A
C759       Br766   1.941       .  S
C760        C761   1.433       .  A
C760       Br765   1.928       .  S
C761        C762   1.429       .  A
C762       Br763   1.936       .  S
C767        C768   1.428       .  A
C767        C772   1.412       .  A
C767       Br774   1.919       .  S
C768        C769   1.420       .  A
C769        C770   1.409       .  A
C769       Br776   1.932       .  S
C770        C771   1.405       .  A
C770       Br775   1.929   1_565  S
C771        C772   1.402       .  A
C772       Br773   1.937       .  S
C777        C778   1.406   1_545  A
C777        C782   1.400       .  A
C777       Br784   1.928       .  S
C778        C779   1.407       .  A
C779        C780   1.405       .  A
C779       Br786   1.929       .  S
C780        C781   1.408       .  A
C780       Br785   1.929       .  S
C781        C782   1.406   1_565  A
C782       Br783   1.931       .  S
C787        C788   1.415       .  A
C787        C792   1.413       .  A
C787       Br794   1.927       .  S
C788        C789   1.416       .  A
C789        C790   1.415       .  A
C789       Br796   1.932       .  S
C790        C791   1.417       .  A
C790       Br795   1.934       .  S
C791        C792   1.412       .  A
C792       Br793   1.932   1_545  S
C797        C798   1.414       .  A
C797        C802   1.419       .  A
C797       Br804   1.934       .  S
C798        C799   1.408       .  A
C799        C800   1.422       .  A
C799       Br806   1.924       .  S
C800        C801   1.429       .  A
C800       Br805   1.931   1_545  S
C801        C802   1.428       .  A
C802       Br803   1.937   1_655  S
C807        C808   1.417       .  A
C807        C812   1.415       .  A
C807       Br814   1.931   1_655  S
C808        C809   1.410       .  A
C809        C810   1.414       .  A
C809       Br816   1.926       .  S
C810        C811   1.414       .  A
C810       Br815   1.926       .  S
C811        C812   1.415       .  A
C812       Br813   1.932       .  S
C817        C818   1.412       .  A
C817        C822   1.410       .  A
C817       Br824   1.937       .  S
C818        C819   1.415       .  A
C819        C820   1.419       .  A
C819       Br826   1.931       .  S
C820        C821   1.416       .  A
C820       Br825   1.924       .  S
C821        C822   1.417       .  A
C822       Br823   1.921       .  S
C827        C828   1.414       .  A
C827        C832   1.414       .  A
C827       Br834   1.929       .  S
C828        C829   1.403       .  A
C829        C830   1.410       .  A
C829       Br836   1.920       .  S
C830        C831   1.428       .  A
C830       Br835   1.940       .  S
C831        C832   1.423       .  A
C832       Br833   1.937       .  S
C837        C838   1.421       .  A
C837        C842   1.411       .  A
C837       Br844   1.934       .  S
C838        C839   1.429       .  A
C839        C840   1.411       .  A
C839       Br846   1.926       .  S
C840        C841   1.403       .  A
C840       Br845   1.938       .  S
C841        C842   1.406       .  A
C842       Br843   1.931   1_545  S
C847        C848   1.433       .  A
C847        C852   1.429       .  A
C847       Br854   1.926       .  S
C848        C849   1.418       .  A
C849        C850   1.394       .  A
C849       Br856   1.920       .  S
C850        C851   1.398       .  A
C850       Br855   1.914       .  S
C851        C852   1.412       .  A
C852       Br853   1.928       .  S
C857        C858   1.409       .  A
C857        C862   1.417       .  A
C857       Br864   1.935       .  S
C858        C859   1.408       .  A
C859        C860   1.414       .  A
C859       Br866   1.933       .  S
C860        C861   1.424       .  A
C860       Br865   1.931       .  S
C861        C862   1.427       .  A
C862       Br863   1.934       .  S
C867        C868   1.433       .  A
C867        C872   1.415       .  A
C867       Br874   1.934       .  S
C868        C869   1.423       .  A
C869        C870   1.404       .  A
C869       Br876   1.931       .  S
C870        C871   1.411       .  A
C870       Br875   1.940       .  S
C871        C872   1.409       .  A
C872       Br873   1.935   1_655  S
C877        C878   1.416       .  A
C877        C882   1.409       .  A
C877       Br884   1.933       .  S
C878        C879   1.427       .  A
C879        C880   1.415       .  A
C879       Br886   1.933       .  S
C880        C881   1.414       .  A
C880       Br885   1.935   1_545  S
C881        C882   1.419       .  A
C882       Br883   1.938       .  S
C887        C888   1.421       .  A
C887        C892   1.408       .  A
C887       Br894   1.937       .  S
C888        C889   1.422       .  A
C889        C890   1.414       .  A
C889       Br896   1.939       .  S
C890        C891   1.418       .  A
C890       Br895   1.935   1_655  S
C891        C892   1.413       .  A
C892       Br893   1.934   1_545  S
C897        C898   1.411       .  A
C897        C902   1.408       .  A
C897       Br904   1.933       .  S
C898        C899   1.418       .  A
C899        C900   1.420       .  A
C899       Br906   1.925       .  S
C900        C901   1.417       .  A
C900       Br905   1.929       .  S
C901        C902   1.423       .  A
C902       Br903   1.928       .  S
C907        C908   1.414       .  A
C907        C912   1.412       .  A
C907       Br914   1.935       .  S
C908        C909   1.401       .  A
C909        C910   1.408       .  A
C909       Br916   1.927       .  S
C910        C911   1.425       .  A
C910       Br915   1.937       .  S
C911        C912   1.423       .  A
C912       Br913   1.935       .  S
C917        C918   1.432       .  A
C917        C922   1.412       .  A
C917       Br924   1.924       .  S
C918        C919   1.420       .  A
C919        C920   1.406       .  A
C919       Br926   1.925       .  S
C920        C921   1.402       .  A
C920       Br925   1.934   1_655  S
C921        C922   1.402       .  A
C922       Br923   1.941       .  S
C927        C928   1.419       .  A
C927        C932   1.412       .  A
C927       Br934   1.923       .  S
C928        C929   1.430       .  A
C929        C930   1.415       .  A
C929       Br936   1.939       .  S
C930        C931   1.416       .  A
C930       Br935   1.940       .  S
C931        C932   1.417       .  A
C932       Br933   1.936   1_655  S
C937        C938   1.404       .  A
C937        C942   1.401       .  A
C937       Br944   1.931       .  S
C938        C939   1.407       .  A
C939        C940   1.402       .  A
C939       Br946   1.933       .  S
C940        C941   1.411       .  A
C940       Br945   1.933       .  S
C941        C942   1.410       .  A
C942       Br943   1.931       .  S
C947        C948   1.408       .  A
C947        C952   1.420       .  A
C947       Br954   1.925       .  S
C948        C949   1.413       .  A
C949        C950   1.413       .  A
C949       Br956   1.935       .  S
C950        C951   1.420       .  A
C950       Br955   1.922       .  S
C951        C952   1.423       .  A
C952       Br953   1.925       .  S
C957        C958   1.423       .  A
C957        C962   1.418       .  A
C957       Br964   1.939       .  S
C958        C959   1.427       .  A
C959        C960   1.412       .  A
C959       Br966   1.939       .  S
C960        C961   1.413       .  A
C960       Br965   1.933       .  S
C961        C962   1.415       .  A
C962       Br963   1.923       .  S
C967        C968   1.430       .  A
C967        C972   1.415       .  A
C967       Br974   1.938       .  S
C968        C969   1.426       .  A
C969        C970   1.420       .  A
C969       Br976   1.931       .  S
C970        C971   1.411       .  A
C970       Br975   1.926       .  S
C971        C972   1.408       .  A
C972       Br973   1.928       .  S
C977        C978   1.415       .  A
C977        C982   1.409       .  A
C977       Br984   1.928       .  S
C978        C979   1.411       .  A
C979        C980   1.416       .  A
C979       Br986   1.922       .  S
C980        C981   1.416       .  A
C980       Br985   1.931   1_455  S
C981        C982   1.414       .  A
C982       Br983   1.934   1_565  S
C987        C988   1.425       .  A
C987        C992   1.410       .  A
C987       Br994   1.922       .  S
C988        C989   1.432       .  A
C989        C990   1.413       .  A
C989       Br996   1.937       .  S
C990        C991   1.403       .  A
C990       Br995   1.933       .  S
C991        C992   1.403       .  A
C992       Br993   1.934       .  S
C997        C998   1.405       .  A
C997       C1002   1.408       .  A
C997      Br1004   1.931       .  S
C998        C999   1.407       .  A
C999       C1000   1.411       .  A
C999      Br1006   1.930       .  S
C1000      C1001   1.426       .  A
C1000     Br1005   1.933   1_455  S
C1001      C1002   1.425       .  A
C1002     Br1003   1.936       .  S
C1007      C1008   1.425       .  A
C1007      C1012   1.407       .  A
C1007     Br1014   1.927       .  S
C1008      C1009   1.438       .  A
C1009      C1010   1.408       .  A
C1009     Br1016   1.932       .  S
C1010      C1011   1.399       .  A
C1010     Br1015   1.945       .  S
C1011      C1012   1.399       .  A
C1012     Br1013   1.933   1_455  S
C1017      C1018   1.417       .  A
C1017      C1022   1.415       .  A
C1017     Br1024   1.934       .  S
C1018      C1019   1.412       .  A
C1019      C1020   1.403       .  A
C1019     Br1026   1.930       .  S
C1020      C1021   1.419       .  A
C1020     Br1025   1.939       .  S
C1021      C1022   1.420       .  A
C1022     Br1023   1.929       .  S
C1027      C1028   1.417       .  A
C1027      C1032   1.410       .  A
C1027     Br1034   1.929       .  S
C1028      C1029   1.415       .  A
C1029      C1030   1.415       .  A
C1029     Br1036   1.923       .  S
C1030      C1031   1.410       .  A
C1030     Br1035   1.924   1_565  S
C1031      C1032   1.413       .  A
C1032     Br1033   1.932       .  S
C1037      C1038   1.405       .  A
C1037      C1042   1.404       .  A
C1037     Br1044   1.939       .  S
C1038      C1039   1.411       .  A
C1039      C1040   1.410       .  A
C1039     Br1046   1.933   1_565  S
C1040      C1041   1.415       .  A
C1040     Br1045   1.927       .  S
C1041      C1042   1.414       .  A
C1042     Br1043   1.907       .  S
C1047      C1048   1.424       .  A
C1047      C1052   1.417       .  A
C1047     Br1054   1.935       .  S
C1048      C1049   1.423       .  A
C1049      C1050   1.412       .  A
C1049     Br1056   1.928       .  S
C1050      C1051   1.413       .  A
C1050     Br1055   1.936       .  S
C1051      C1052   1.419       .  A
C1052     Br1053   1.934       .  S
C1057      C1058   1.415       .  A
C1057      C1062   1.405       .  A
C1057     Br1064   1.929       .  S
C1058      C1059   1.428       .  A
C1059      C1060   1.415       .  A
C1059     Br1066   1.938       .  S
C1060      C1061   1.413       .  A
C1060     Br1065   1.933       .  S
C1061      C1062   1.414       .  A
C1062     Br1063   1.939       .  S
C1067      C1068   1.409       .  A
C1067      C1072   1.412       .  A
C1067     Br1074   1.930   1_455  S
C1068      C1069   1.404       .  A
C1069      C1070   1.406       .  A
C1069     Br1076   1.936       .  S
C1070      C1071   1.417       .  A
C1070     Br1075   1.914       .  S
C1071      C1072   1.418       .  A
C1072     Br1073   1.932       .  S
C1077      C1078   1.407       .  A
C1077      C1082   1.406       .  A
C1077     Br1084   1.929       .  S
C1078      C1079   1.406       .  A
C1079      C1080   1.402       .  A
C1079     Br1086   1.930       .  S
C1080      C1081   1.407       .  A
C1080     Br1085   1.930       .  S
C1081      C1082   1.408       .  A
C1082     Br1083   1.929       .  S
C1087      C1088   1.413       .  A
C1087      C1092   1.416       .  A
C1087     Br1094   1.935       .  S
C1088      C1089   1.417       .  A
C1089      C1090   1.407       .  A
C1089     Br1096   1.941   1_565  S
C1090      C1091   1.419       .  A
C1090     Br1095   1.930       .  S
C1091      C1092   1.429       .  A
C1092     Br1093   1.935       .  S
C1097      C1098   1.417       .  A
C1097      C1102   1.412       .  A
C1097     Br1104   1.931       .  S
C1098      C1099   1.400       .  A
C1099      C1100   1.401       .  A
C1099     Br1106   1.923       .  S
C1100      C1101   1.423       .  A
C1100     Br1105   1.937       .  S
C1101      C1102   1.415       .  A
C1102     Br1103   1.933       .  S
C1107      C1108   1.406       .  A
C1107      C1112   1.400       .  A
C1107     Br1114   1.931       .  S
C1108      C1109   1.407       .  A
C1109      C1110   1.402       .  A
C1109     Br1116   1.929       .  S
C1110      C1111   1.404       .  A
C1110     Br1115   1.928       .  S
C1111      C1112   1.407       .  A
C1112     Br1113   1.931       .  S
C1117      C1118   1.414       .  A
C1117      C1122   1.412       .  A
C1117     Br1124   1.933       .  S
C1118      C1119   1.416       .  A
C1119      C1120   1.415       .  A
C1119     Br1126   1.932       .  S
C1120      C1121   1.410       .  A
C1120     Br1125   1.923       .  S
C1121      C1122   1.416       .  A
C1122     Br1123   1.932       .  S
C1127      C1128   1.414       .  A
C1127      C1132   1.419       .  A
C1127     Br1134   1.931       .  S
C1128      C1129   1.416       .  A
C1129      C1130   1.415       .  A
C1129     Br1136   1.933       .  S
C1130      C1131   1.418       .  A
C1130     Br1135   1.933       .  S
C1131      C1132   1.415       .  A
C1132     Br1133   1.921       .  S
C1137      C1138   1.417       .  A
C1137      C1142   1.413       .  A
C1137     Br1144   1.929       .  S
C1138      C1139   1.416       .  A
C1139      C1140   1.418       .  A
C1139     Br1146   1.924       .  S
C1140      C1141   1.412       .  A
C1140     Br1145   1.931       .  S
C1141      C1142   1.415       .  A
C1142     Br1143   1.934       .  S
C1147      C1148   1.419       .  A
C1147      C1152   1.421       .  A
C1147     Br1154   1.930       .  S
C1148      C1149   1.416       .  A
C1149      C1150   1.414       .  A
C1149     Br1156   1.932       .  S
C1150      C1151   1.417       .  A
C1150     Br1155   1.932       .  S
C1151      C1152   1.411       .  A
C1152     Br1153   1.923       .  S
C1157      C1158   1.412       .  A
C1157      C1162   1.412       .  A
C1157     Br1164   1.932   1_565  S
C1158      C1159   1.406       .  A
C1159      C1160   1.406       .  A
C1159     Br1166   1.935       .  S
C1160      C1161   1.414       .  A
C1160     Br1165   1.915       .  S
C1161      C1162   1.414       .  A
C1162     Br1163   1.931       .  S
C1167      C1168   1.405   1_565  A
C1167      C1172   1.414       .  A
C1167     Br1174   1.937       .  S
C1168      C1169   1.414       .  A
C1169      C1170   1.408       .  A
C1169     Br1176   1.943       .  S
C1170      C1171   1.422       .  A
C1170     Br1175   1.932       .  S
C1171      C1172   1.433   1_545  A
C1172     Br1173   1.933       .  S
C1177      C1178   1.406       .  A
C1177      C1182   1.417       .  A
C1177     Br1184   1.931       .  S
C1178      C1179   1.405   1_554  A
C1179      C1180   1.406   1_556  A
C1179     Br1186   1.924       .  S
C1180      C1181   1.423       .  A
C1180     Br1185   1.930       .  S
C1181      C1182   1.431       .  A
C1182     Br1183   1.935       .  S
C1187      C1188   1.419       .  A
C1187      C1192   1.416       .  A
C1187     Br1194   1.932       .  S
C1188      C1189   1.414       .  A
C1189      C1190   1.416       .  A
C1189     Br1196   1.931       .  S
C1190      C1191   1.414       .  A
C1190     Br1195   1.923       .  S
C1191      C1192   1.416       .  A
C1192     Br1193   1.937       .  S
C1197      C1198   1.424       .  A
C1197      C1202   1.410       .  A
C1197     Br1204   1.935       .  S
C1198      C1199   1.427   1_455  A
C1199      C1200   1.408       .  A
C1199     Br1206   1.917       .  S
C1200      C1201   1.399       .  A
C1200     Br1205   1.939       .  S
C1201      C1202   1.404   1_655  A
C1202     Br1203   1.931       .  S
C1207      C1208   1.415       .  A
C1207      C1212   1.406       .  A
C1207     Br1214   1.918       .  S
C1208      C1209   1.412   1_455  A
C1209      C1210   1.413       .  A
C1209     Br1216   1.921       .  S
C1210      C1211   1.427       .  A
C1210     Br1215   1.942       .  S
C1211      C1212   1.417   1_655  A
C1212     Br1213   1.939       .  S
C1217      C1218   1.401       .  A
C1217      C1222   1.414       .  A
C1217     Br1224   1.935       .  S
C1218      C1219   1.406       .  A
C1219      C1220   1.415       .  A
C1219     Br1226   1.931   1_554  S
C1220      C1221   1.431       .  A
C1220     Br1225   1.936       .  S
C1221      C1222   1.427       .  A
C1222     Br1223   1.913       .  S
C1227      C1228   1.416       .  A
C1227      C1232   1.417       .  A
C1227     Br1234   1.926       .  S
C1228      C1229   1.417       .  A
C1229      C1230   1.414       .  A
C1229     Br1236   1.919       .  S
C1230      C1231   1.413       .  A
C1230     Br1235   1.935       .  S
C1231      C1232   1.418       .  A
C1232     Br1233   1.934       .  S
C1237      C1238   1.430       .  A
C1237      C1242   1.413       .  A
C1237     Br1244   1.925       .  S
C1238      C1239   1.438       .  A
C1239      C1240   1.412       .  A
C1239     Br1246   1.929       .  S
C1240      C1241   1.399       .  A
C1240     Br1245   1.942       .  S
C1241      C1242   1.400       .  A
C1242     Br1243   1.934       .  S
C1247      C1248   1.411       .  A
C1247      C1252   1.408       .  A
C1247     Br1254   1.932       .  S
C1248      C1249   1.405       .  A
C1249      C1250   1.408       .  A
C1249     Br1256   1.930       .  S
C1250      C1251   1.420       .  A
C1250     Br1255   1.934       .  S
C1251      C1252   1.415       .  A
C1252     Br1253   1.932       .  S
C1257      C1258   1.412       .  A
C1257      C1262   1.414       .  A
C1257     Br1264   1.936   1_554  S
C1258      C1259   1.413       .  A
C1259      C1260   1.415       .  A
C1259     Br1266   1.934       .  S
C1260      C1261   1.421       .  A
C1260     Br1265   1.922       .  S
C1261      C1262   1.429       .  A
C1262     Br1263   1.939       .  S
