geometry optimzed in LAMMPS
_audit_creation_date              2020-11-30 
_audit_creation_method            'lammps2cif' 
_symmetry_space_group_name_H-M    'P1' 
_symmetry_Int_Tables_number       1 
_symmetry_cell_setting            triclinic 
loop_ 
_symmetry_equiv_pos_as_xyz 
  x,y,z 
_cell_length_a                    46.37613384362327 
_cell_length_b                    46.29442246368556 
_cell_length_c                    46.368093478229284 
_cell_angle_alpha                 90.04422940755529 
_cell_angle_beta                  90.10072650079414 
_cell_angle_gamma                 89.98557223599673 
loop_ 
_atom_site_label 
_atom_site_type_symbol 
_atom_site_fract_x 
_atom_site_fract_y 
_atom_site_fract_z 
_atom_site_charge 
O1          O  0.09653394  0.47792696  0.53746581    -0.72230
O2          O  0.09667894  0.51749610  0.46125380    -0.73210
O3          O  0.09897636  0.53579822  0.51862876    -0.61830
O4          O  0.09435178  0.45974545  0.47958523    -0.70240
O5          O  0.04646784  0.46097586  0.48108116    -0.69800
O6          O  0.05166644  0.53907315  0.51957255    -0.61050
O7          O  0.04881402  0.51933043  0.46148789    -0.73560
O8          O  0.04876208  0.48091286  0.53934373    -0.72340
Cu9        Cu  0.09818829  0.49760486  0.49925314     1.04560
Cu10       Cu  0.04714564  0.50012126  0.50045016     1.04330
C11         C  0.07277384  0.47319056  0.55046094     0.93960
C12         C  0.07294069  0.52490127  0.44944595     0.93100
C13         C  0.07639219  0.55009011  0.52499738     0.85250
C14         C  0.06994712  0.44844408  0.47383665     0.91520
O15         O  0.46323325  0.88431765  0.53666400    -0.72230
O16         O  0.49924222  0.88510682  0.45954988    -0.73210
O17         O  0.52046942  0.88368247  0.51621148    -0.61830
O18         O  0.44267574  0.88568401  0.48025466    -0.70240
O19         O  0.44384177  0.93358544  0.47954252    -0.69800
O20         O  0.52158978  0.93128443  0.51933486    -0.61050
O21         O  0.50318014  0.93257165  0.46042376    -0.73560
O22         O  0.46322150  0.93186126  0.53827692    -0.72340
Cu23       Cu  0.48140504  0.88324353  0.49809387     1.04560
Cu24       Cu  0.48294538  0.93417506  0.49932110     1.04330
C25         C  0.45714405  0.90758153  0.55000192     0.93960
C26         C  0.50793315  0.90839220  0.44784391     0.93100
C27         C  0.53327215  0.90674346  0.52423199     0.85250
C28         C  0.43077437  0.90977207  0.47437035     0.91520
O29         O  0.86997223  0.54232238  0.48371864    -0.72230
O30         O  0.86731909  0.46382558  0.51766990    -0.73210
O31         O  0.87055678  0.51994261  0.54013394    -0.61830
O32         O  0.86728298  0.48597207  0.46139293    -0.70240
O33         O  0.91464589  0.48065776  0.46088694    -0.69800
O34         O  0.91839612  0.51945930  0.53876639    -0.61050
O35         O  0.91463406  0.46118796  0.51903209    -0.73560
O36         O  0.91766580  0.53949828  0.48016934    -0.72340
Cu37       Cu  0.86727736  0.50314847  0.50074085     1.04560
Cu38       Cu  0.91815680  0.50022066  0.49964719     1.04330
C39         C  0.89399975  0.55316976  0.47610672     0.93960
C40         C  0.89003433  0.44981679  0.52423772     0.93100
C41         C  0.89487448  0.52505332  0.55198579     0.85250
C42         C  0.89006502  0.47678810  0.44898852     0.91520
O43         O  0.50103756  0.45997898  0.06227501    -0.72230
O44         O  0.46563134  0.53962639  0.06658077    -0.73210
O45         O  0.52265357  0.51767844  0.06452205    -0.61830
O46         O  0.44335405  0.48198482  0.06420700    -0.70240
O47         O  0.44472397  0.48018113  0.11200251    -0.69800
O48         O  0.52321087  0.51482296  0.11235575    -0.61050
O49         O  0.46640117  0.53659634  0.11400835    -0.73560
O50         O  0.50107442  0.45826838  0.11015782    -0.72340
Cu51       Cu  0.48312407  0.49984634  0.06260293     1.04560
Cu52       Cu  0.48390238  0.49738966  0.11367142     1.04330
C53         C  0.50655035  0.44668007  0.08582265     0.93960
C54         C  0.46054077  0.55090551  0.09124560     0.93100
C55         C  0.53523296  0.52195337  0.08868958     0.85250
C56         C  0.43150328  0.47567221  0.08828895     0.91520
N57         N  0.19053639  0.39187465  0.09490577    -0.26580
N58         N  0.17662092  0.37228233  0.11020660    -0.34440
C59         C  0.14874836  0.37240941  0.10232955     0.01760
C60         C  0.14479815  0.39341007  0.08137763     0.07790
C61         C  0.17185402  0.40525481  0.07717951    -0.05310
H62         H  0.13244957  0.35845225  0.11149532     0.08450
H63         H  0.17750287  0.42274233  0.06278898     0.09650
Cu64       Cu  0.19562048  0.34749661  0.14239067     0.44170
Cu65       Cu  0.23411073  0.39961485  0.09897034     0.41990
Cu66       Cu  0.27279656  0.35549130  0.15086664     0.43880
N67         N  0.21950060  0.32528853  0.17318285    -0.33970
N68         N  0.24786303  0.32730647  0.17546061    -0.28220
C69         C  0.25698341  0.30900334  0.19609618    -0.04320
C70         C  0.23319475  0.29515371  0.20769197     0.07900
C71         C  0.20978311  0.30609657  0.19270521     0.01690
H72         H  0.27928784  0.30610458  0.20232433     0.09340
H73         H  0.18743053  0.29988115  0.19515886     0.08420
N74         N  0.29215797  0.38683681  0.12508893    -0.35410
N75         N  0.27783989  0.40285711  0.10627670    -0.27600
C76         C  0.29610755  0.42142758  0.09358215    -0.02830
C77         C  0.32321066  0.41682078  0.10488614     0.05780
C78         C  0.32004749  0.39488696  0.12485990     0.03870
H79         H  0.29000359  0.43737348  0.07765891     0.08970
H80         H  0.33666178  0.38580669  0.13851809     0.07810
N81         N  0.08469875  0.39935389  0.70549671    -0.26580
N82         N  0.10896102  0.38994512  0.69393557    -0.34440
C83         C  0.11118096  0.40006925  0.66699876     0.01760
C84         C  0.08675145  0.41602181  0.66062234     0.07790
C85         C  0.07043982  0.41523524  0.68572764    -0.05310
H86         H  0.12928476  0.39574703  0.65295527     0.08450
H87         H  0.04962538  0.42513015  0.68932980     0.09650
Cu88       Cu  0.13722313  0.36156076  0.71329528     0.44170
Cu89       Cu  0.07398492  0.39175987  0.74835333     0.41990
Cu90       Cu  0.13341704  0.35744270  0.78862565     0.43880
N91         N  0.16121351  0.33201522  0.73631204    -0.33970
N92         N  0.16076133  0.33117046  0.76474785    -0.28220
C93         C  0.17866881  0.31017332  0.77381468    -0.04320
C94         C  0.19065461  0.29696000  0.74978880     0.07900
C95         C  0.17901398  0.31136040  0.72637342     0.01690
H96         H  0.18227449  0.30458015  0.79618622     0.09340
H97         H  0.18352585  0.30748902  0.70380862     0.08420
N98         N  0.09846727  0.37839642  0.80724712    -0.35410
N99         N  0.07578134  0.38829808  0.79304680    -0.27600
C100        C  0.05559110  0.39655370  0.81220740    -0.02830
C101        C  0.06618086  0.39200374  0.83988425     0.05780
C102        C  0.09362294  0.38086768  0.83565689     0.03870
H103        H  0.03450656  0.40458362  0.80629696     0.08970
H104        H  0.10886345  0.37426621  0.85204397     0.07810
N105        N  0.87055154  0.40759539  0.29243853    -0.26580
N106        N  0.86028213  0.38522155  0.30684350    -0.34440
C107        C  0.86313068  0.39017138  0.33519924     0.01760
C108        C  0.87525413  0.41721891  0.33907065     0.07790
C109        C  0.87984914  0.42758521  0.31140909    -0.05310
H110        H  0.85599957  0.37542924  0.35182235     0.08450
H111        H  0.88857105  0.44841906  0.30547265     0.09650
Cu112      Cu  0.83929742  0.35033315  0.28839196     0.44170
Cu113      Cu  0.87231940  0.40926399  0.24772799     0.41990
Cu114      Cu  0.84662484  0.34310356  0.21333216     0.43880
N115        N  0.81412037  0.32208326  0.26463261    -0.33970
N116        N  0.81604526  0.32011454  0.23630580    -0.28220
C117        C  0.79548596  0.30201833  0.22655964    -0.04320
C118        C  0.78016481  0.29182040  0.25005174     0.07900
C119        C  0.79265839  0.30493133  0.27384222     0.01690
H120        H  0.79223194  0.29638579  0.20413695     0.09340
H121        H  0.78622950  0.30264403  0.29615044     0.08420
N122        N  0.87360008  0.37296582  0.19398711    -0.35410
N123        N  0.88010909  0.39845421  0.20499855    -0.27600
C124        C  0.89428138  0.41399950  0.18501321    -0.02830
C125        C  0.89746936  0.39725754  0.16029831     0.05780
C126        C  0.88444545  0.37117474  0.16727682     0.03870
H127        H  0.90125928  0.43602461  0.18828774     0.08970
H128        H  0.88256948  0.35215943  0.15387412     0.07810
O129        O  0.00387997  0.43193200  0.96172449    -0.72230
O130        O  0.96289978  0.43792417  0.03848569    -0.73210
O131        O  0.02219908  0.43628532  0.02028206    -0.61830
O132        O  0.94501048  0.43334960  0.97950229    -0.70240
O133        O  0.94516343  0.38593146  0.98525918    -0.69800
O134        O  0.02206603  0.38832585  0.02256350    -0.61050
O135        O  0.96449377  0.39010938  0.04194377    -0.73560
O136        O  0.00212449  0.38429223  0.96526477    -0.72340
Cu137      Cu  0.98353751  0.43670959  0.99995124     1.04560
Cu138      Cu  0.98352384  0.38566461  0.00392602     1.04330
C139        C  0.00921889  0.40691411  0.95126248     0.93960
C140        C  0.95674253  0.41459019  0.05189909     0.93100
C141        C  0.03431148  0.41248942  0.02735722     0.85250
C142        C  0.93298511  0.40873350  0.97582292     0.91520
N143        N  0.68941791  0.59372567  0.10804815    -0.26580
N144        N  0.67450862  0.61210851  0.12400994    -0.34440
C145        C  0.64645572  0.60488379  0.12279958     0.01760
C146        C  0.64363689  0.58085206  0.10527738     0.07790
C147        C  0.67127895  0.57433267  0.09632293    -0.05310
H148        H  0.62940157  0.61605305  0.13416610     0.08450
H149        H  0.67774272  0.55683875  0.08225430     0.09650
Cu150      Cu  0.69271981  0.64576352  0.14746029     0.44170
Cu151      Cu  0.73354981  0.59584821  0.10209681     0.41990
Cu152      Cu  0.76928791  0.65458611  0.13867586     0.43880
N153        N  0.71690129  0.67539070  0.17091177    -0.33970
N154        N  0.74520483  0.67768293  0.16846736    -0.28220
C155        C  0.75487148  0.69713433  0.18774690    -0.04320
C156        C  0.73147596  0.70794905  0.20275395     0.07900
C157        C  0.70771550  0.69379181  0.19143813     0.01690
H158        H  0.77723912  0.70325093  0.19035708     0.09340
H159        H  0.68548728  0.69617766  0.19810562     0.08420
N160        N  0.78931017  0.62796178  0.10880733    -0.35410
N161        N  0.77665605  0.60562686  0.09637287    -0.27600
C162        C  0.79588507  0.59193910  0.07950130    -0.02830
C163        C  0.82192674  0.60654247  0.08116276     0.05780
C164        C  0.81677494  0.62938695  0.09981967     0.03870
H165        H  0.79126066  0.57260558  0.06723810     0.08970
H166        H  0.83193499  0.64582822  0.10653827     0.07810
N167        N  0.87924277  0.60076263  0.70448577    -0.26580
N168        N  0.85880560  0.61455519  0.69007298    -0.34440
C169        C  0.85827146  0.60460345  0.66281001     0.01760
C170        C  0.87925753  0.58357182  0.66018763     0.07790
C171        C  0.89214872  0.58162801  0.68690977    -0.05310
H172        H  0.84351786  0.61187970  0.64624625     0.08450
H173        H  0.90939487  0.56720819  0.69321668     0.09650
Cu174      Cu  0.83161426  0.64519455  0.70850754     0.44170
Cu175      Cu  0.88754657  0.60679761  0.74778339     0.41990
Cu176      Cu  0.82998740  0.64252684  0.78619994     0.43880
N177        N  0.80550230  0.67193294  0.73340284    -0.33970
N178        N  0.80402441  0.67003087  0.76181422    -0.28220
C179        C  0.78488661  0.68959346  0.77155674    -0.04320
C180        C  0.77393182  0.70478784  0.74820978     0.07900
C181        C  0.78759526  0.69300414  0.72436442     0.01690
H182        H  0.77985452  0.69298649  0.79408430     0.09340
H183        H  0.78448456  0.69903241  0.70203038     0.08420
N184        N  0.86362532  0.62033403  0.80616627    -0.35410
N185        N  0.88593818  0.60960634  0.79212719    -0.27600
C186        C  0.90572748  0.60032288  0.81121612    -0.02830
C187        C  0.89527599  0.60495956  0.83884370     0.05780
C188        C  0.86829016  0.61737870  0.83460392     0.03870
H189        H  0.92651180  0.59158387  0.80526957     0.08970
H190        H  0.85330211  0.62447727  0.85099043     0.07810
N191        N  0.08730239  0.59901695  0.29471391    -0.26580
N192        N  0.11208965  0.60772234  0.30572633    -0.34440
C193        C  0.11442076  0.59776891  0.33274730     0.01760
C194        C  0.08940473  0.58295024  0.33985832     0.07790
C195        C  0.07269564  0.58429191  0.31496385    -0.05310
H196        H  0.13322488  0.60133262  0.34627407     0.08450
H197        H  0.05129886  0.57553193  0.31167415     0.09650
Cu198      Cu  0.14002069  0.63603621  0.28552366     0.44170
Cu199      Cu  0.07646616  0.60470181  0.25173539     0.41990
Cu200      Cu  0.12871922  0.64681026  0.21058733     0.43880
N201        N  0.16123768  0.66783862  0.26249410    -0.33970
N202        N  0.15778228  0.67115481  0.23441217    -0.28220
C203        C  0.17480232  0.69281714  0.22534068    -0.04320
C204        C  0.18926622  0.70399816  0.24899367     0.07900
C205        C  0.18007884  0.68771190  0.27222831     0.01690
H206        H  0.17628583  0.70011963  0.20322721     0.09340
H207        H  0.18707160  0.68969547  0.29442019     0.08420
N208        N  0.09597722  0.62231656  0.19231942    -0.35410
N209        N  0.07672766  0.60733998  0.20710764    -0.27600
C210        C  0.05788437  0.59520268  0.18859704    -0.02830
C211        C  0.06568575  0.60299620  0.16092817     0.05780
C212        C  0.08979799  0.62024144  0.16409533     0.03870
H213        H  0.03921016  0.58270516  0.19488745     0.08970
H214        H  0.10127515  0.63147928  0.14717526     0.07810
O215        O  0.96275829  0.56546670  0.95957793    -0.72230
O216        O  0.00045932  0.56603833  0.03898095    -0.73210
O217        O  0.94283262  0.56557428  0.01757646    -0.61830
O218        O  0.02154020  0.56488657  0.98092403    -0.70240
O219        O  0.02091019  0.61266899  0.97963748    -0.69800
O220        O  0.94400498  0.61355789  0.01793649    -0.61050
O221        O  0.00163773  0.61351356  0.03658141    -0.73560
O222        O  0.96356939  0.61325515  0.96054208    -0.72340
Cu223      Cu  0.98197192  0.56365334  0.99915999     1.04560
Cu224      Cu  0.98255550  0.61472977  0.99858482     1.04330
C225        C  0.95632028  0.58982408  0.94809548     0.93960
C226        C  0.00677582  0.59040713  0.05050629     0.93100
C227        C  0.93133846  0.58982249  0.02386030     0.85250
C228        C  0.03387756  0.58883069  0.97488598     0.91520
N229        N  0.68891768  0.39615714  0.89930013    -0.26580
N230        N  0.67958213  0.39130631  0.87285591    -0.34440
C231        C  0.65364175  0.40348268  0.86960584     0.01760
C232        C  0.64489742  0.41529704  0.89574455     0.07790
C233        C  0.66824541  0.41027695  0.91407355    -0.05310
H234        H  0.64209486  0.40338362  0.84937542     0.08450
H235        H  0.67022561  0.41597609  0.93655933     0.09650
Cu236      Cu  0.69908570  0.36409063  0.84335476     0.44170
Cu237      Cu  0.73109925  0.38730967  0.91153030     0.41990
Cu238      Cu  0.77256088  0.35444506  0.85186036     0.43880
N239        N  0.72097120  0.33270108  0.82036424    -0.33970
N240        N  0.74915843  0.32980785  0.82278108    -0.28220
C241        C  0.75797566  0.30823038  0.80546775    -0.04320
C242        C  0.73398782  0.29665624  0.79183042     0.07900
C243        C  0.71084528  0.31266451  0.80187961     0.01690
H244        H  0.78010314  0.30111113  0.80339434     0.09340
H245        H  0.68842938  0.31025427  0.79585289     0.08420
N246        N  0.79028135  0.37626765  0.88667555    -0.35410
N247        N  0.77585889  0.38635145  0.90913456    -0.27600
C248        C  0.79482801  0.39641912  0.92875485    -0.02830
C249        C  0.82245849  0.39250568  0.91807325     0.05780
C250        C  0.81858035  0.38001960  0.89122956     0.03870
H251        H  0.78893783  0.40516412  0.94957575     0.08970
H252        H  0.83522220  0.37315082  0.87639370     0.07810
N253        N  0.18754035  0.60208004  0.90004511    -0.26580
N254        N  0.17370567  0.62285858  0.88616731    -0.34440
C255        C  0.14626290  0.62369314  0.89541604     0.01760
C256        C  0.14270836  0.60228576  0.91583925     0.07790
C257        C  0.16923014  0.58899137  0.91831975    -0.05310
H258        H  0.13025706  0.63912250  0.88826848     0.08450
H259        H  0.17507243  0.57184957  0.93305784     0.09650
Cu260      Cu  0.19292019  0.65022219  0.85639824     0.44170
Cu261      Cu  0.23129794  0.59456336  0.89601990     0.41990
Cu262      Cu  0.27033335  0.65015338  0.85674284     0.43880
N263        N  0.21742185  0.67618982  0.82941121    -0.33970
N264        N  0.24589521  0.67704421  0.83029577    -0.28220
C265        C  0.25530925  0.69637143  0.81076918    -0.04320
C266        C  0.23160920  0.70803358  0.79668596     0.07900
C267        C  0.20796278  0.69463985  0.80907174     0.01690
H268        H  0.27778334  0.70107966  0.80666943     0.09340
H269        H  0.18548861  0.69829808  0.80396758     0.08420
N270        N  0.28991031  0.61695692  0.87987466    -0.35410
N271        N  0.27574794  0.59590817  0.89288510    -0.27600
C272        C  0.29475473  0.57639460  0.90299398    -0.02830
C273        C  0.32230483  0.58561930  0.89613903     0.05780
C274        C  0.31830754  0.61156849  0.88172699     0.03870
H275        H  0.28884857  0.55645212  0.91360502     0.08970
H276        H  0.33482591  0.62507198  0.87228591     0.07810
O277        O  0.52237883  0.47985858  0.93457228    -0.72230
O278        O  0.44445378  0.52059288  0.93408102    -0.73210
O279        O  0.46335119  0.46130141  0.93661724    -0.61830
O280        O  0.50314881  0.53873426  0.93314302    -0.70240
O281        O  0.49943551  0.53809843  0.88537375    -0.69800
O282        O  0.46603093  0.45825319  0.88892423    -0.61050
O283        O  0.44345533  0.51473702  0.88685132    -0.73560
O284        O  0.52193705  0.48188175  0.88691973    -0.72340
Cu285      Cu  0.48335783  0.50015389  0.93645117     1.04560
Cu286      Cu  0.48267790  0.49816367  0.88551505     1.04330
C287        C  0.53442212  0.47456464  0.91026345     0.93960
C288        C  0.43178139  0.52433370  0.90977566     0.93100
C289        C  0.45887150  0.44740335  0.91319921     0.85250
C290        C  0.50701647  0.55073133  0.90865850     0.91520
N291        N  0.57893592  0.29344817  0.10800260    -0.26580
N292        N  0.59680478  0.30872200  0.12422156    -0.34440
C293        C  0.58938415  0.33679762  0.12230683     0.01760
C294        C  0.56573000  0.33901489  0.10414656     0.07790
C295        C  0.55966011  0.31116684  0.09554997    -0.05310
H296        H  0.60002059  0.35421062  0.13367706     0.08450
H297        H  0.54249073  0.30425998  0.08131997     0.09650
Cu298      Cu  0.62953528  0.29006877  0.14905880     0.44170
Cu299      Cu  0.58141979  0.24938789  0.10270416     0.41990
Cu300      Cu  0.63433134  0.21143637  0.14469626     0.43880
N301        N  0.65782334  0.26509674  0.17383133    -0.33970
N302        N  0.65851190  0.23651993  0.17309847    -0.28220
C303        C  0.67777365  0.22699119  0.19265813    -0.04320
C304        C  0.69018518  0.25063709  0.20610085     0.07900
C305        C  0.67708882  0.27444788  0.19353710     0.01690
H306        H  0.68278810  0.20447355  0.19641718     0.09340
H307        H  0.68087624  0.29691780  0.19875422     0.08420
N308        N  0.60914590  0.19183839  0.11306762    -0.35410
N309        N  0.58954729  0.20596354  0.09788173    -0.27600
C310        C  0.57732371  0.18789189  0.07874802    -0.02830
C311        C  0.58986865  0.16112097  0.08208029     0.05780
C312        C  0.60996686  0.16425645  0.10392047     0.03870
H313        H  0.56088582  0.19391936  0.06330934     0.08970
H314        H  0.62430260  0.14783034  0.11228983     0.07810
N315        N  0.57554893  0.70718224  0.89019529    -0.26580
N316        N  0.59210241  0.69322808  0.87165628    -0.34440
C317        C  0.58458573  0.66520812  0.87153671     0.01760
C318        C  0.56238149  0.66126024  0.89109229     0.07790
C319        C  0.55720338  0.68839144  0.90250965    -0.05310
H320        H  0.59458860  0.64886568  0.85818059     0.08450
H321        H  0.54153046  0.69404060  0.91883255     0.09650
Cu322      Cu  0.62448285  0.71264450  0.84759407     0.44170
Cu323      Cu  0.57874208  0.75101834  0.89789548     0.41990
Cu324      Cu  0.63190531  0.78989793  0.85539700     0.43880
N325        N  0.65418262  0.73701461  0.82458662    -0.33970
N326        N  0.65611852  0.76544317  0.82656722    -0.28220
C327        C  0.67619512  0.77484189  0.80785264    -0.04320
C328        C  0.68773924  0.75114962  0.79370022     0.07900
C329        C  0.67332383  0.72752558  0.80495419     0.01690
H330        H  0.68223722  0.79723970  0.80506340     0.09340
H331        H  0.67606597  0.70513282  0.79885022     0.08420
N332        N  0.60613818  0.80892694  0.88683705    -0.35410
N333        N  0.58662183  0.79473998  0.90204706    -0.27600
C334        C  0.57403869  0.81300093  0.92075774    -0.02830
C335        C  0.58624894  0.83990024  0.91713306     0.05780
C336        C  0.60657933  0.83662413  0.89562396     0.03870
H337        H  0.55768581  0.80698240  0.93625364     0.08970
H338        H  0.62090676  0.85305252  0.88727816     0.07810
N339        N  0.58461938  0.90045033  0.20354865    -0.26580
N340        N  0.60514994  0.88628619  0.18970328    -0.34440
C341        C  0.60605238  0.89559593  0.16227276     0.01760
C342        C  0.58495092  0.91636864  0.15875887     0.07790
C343        C  0.57176470  0.91897470  0.18527394    -0.05310
H344        H  0.62145608  0.88838993  0.14630054     0.08450
H345        H  0.55498689  0.93409691  0.19118841     0.09650
Cu346      Cu  0.63240092  0.85644339  0.20902830     0.44170
Cu347      Cu  0.57741501  0.89682639  0.24732679     0.41990
Cu348      Cu  0.63317438  0.85765266  0.28637781     0.43880
N349        N  0.65859510  0.82972572  0.23363780    -0.33970
N350        N  0.65979709  0.83093108  0.26209106    -0.28220
C351        C  0.67918278  0.81144284  0.27156379    -0.04320
C352        C  0.69049107  0.79705725  0.24791006     0.07900
C353        C  0.67686286  0.80921886  0.22424681     0.01690
H354        H  0.68411121  0.80752585  0.29403710     0.09340
H355        H  0.68019206  0.80379943  0.20179130     0.08420
N356        N  0.60019710  0.88097999  0.30587614    -0.35410
N357        N  0.57912621  0.89402861  0.29174309    -0.27600
C358        C  0.55968722  0.90412053  0.31076854    -0.02830
C359        C  0.56898826  0.89714508  0.33827343     0.05780
C360        C  0.59488847  0.88273812  0.33427064     0.03870
H361        H  0.53969221  0.91463601  0.30490773     0.08970
H362        H  0.60828955  0.87306609  0.35075916     0.07810
O363        O  0.59699988  0.03986443  0.01660318    -0.72230
O364        O  0.59579182  0.96144272  0.98160177    -0.73210
O365        O  0.59677222  0.01804022  0.95995850    -0.61830
O366        O  0.59596702  0.98300193  0.03817903    -0.70240
O367        O  0.54827036  0.98448576  0.03911969    -0.69800
O368        O  0.54889357  0.01866056  0.95922790    -0.61050
O369        O  0.54801174  0.96123867  0.98207571    -0.73560
O370        O  0.54919245  0.04143760  0.01623276    -0.72340
Cu371      Cu  0.59793587  0.00056981  0.99908940     1.04560
Cu372      Cu  0.54681059  0.00146617  0.99912586     1.04330
C373        C  0.57350358  0.05318460  0.02190947     0.93960
C374        C  0.57194895  0.94867407  0.97650928     0.93100
C375        C  0.57311579  0.02387984  0.94716938     0.85250
C376        C  0.57225266  0.97830101  0.05128235     0.91520
N377        N  0.37844142  0.79392011  0.10050403    -0.26580
N378        N  0.35334088  0.80504927  0.10794198    -0.34440
C379        C  0.35166527  0.83211420  0.09781792     0.01760
C380        C  0.37748818  0.83909594  0.08431683     0.07790
C381        C  0.39391576  0.81407635  0.08654348    -0.05310
H382        H  0.33291549  0.84572328  0.10048223     0.08450
H383        H  0.41571692  0.81066028  0.07910826     0.09650
Cu384      Cu  0.32443812  0.78501494  0.13548103     0.44170
Cu385      Cu  0.38887285  0.75101512  0.10701573     0.41990
Cu386      Cu  0.33668154  0.70994370  0.14868021     0.43880
N387        N  0.30312642  0.76225828  0.16750813    -0.33970
N388        N  0.30695897  0.73428095  0.17165909    -0.28220
C389        C  0.28987660  0.72553802  0.19336200    -0.04320
C390        C  0.27499175  0.74928119  0.20373472     0.07900
C391        C  0.28397565  0.77224163  0.18691565     0.01690
H392        H  0.28867761  0.70359437  0.20128640     0.09340
H393        H  0.27668888  0.79440876  0.18826772     0.08420
N394        N  0.37003456  0.69151301  0.12520545    -0.35410
N395        N  0.38909331  0.70645232  0.11014585    -0.27600
C396        C  0.40814806  0.68812673  0.09817459    -0.02830
C397        C  0.40074651  0.66040377  0.10620612     0.05780
C398        C  0.37664020  0.66330381  0.12344413     0.03870
H399        H  0.42659739  0.69459171  0.08546107     0.08970
H400        H  0.36527993  0.64623655  0.13460436     0.07810
N401        N  0.38546616  0.29392020  0.89396066    -0.26580
N402        N  0.36758578  0.30874627  0.87735868    -0.34440
C403        C  0.37435605  0.33697262  0.87910597     0.01760
C404        C  0.39764056  0.33990418  0.89758074     0.07790
C405        C  0.40412666  0.31221112  0.90656478    -0.05310
H406        H  0.36378494  0.35396708  0.86706724     0.08450
H407        H  0.42146003  0.30576547  0.92081379     0.09650
Cu408      Cu  0.33630061  0.28959053  0.85145889     0.44170
Cu409      Cu  0.38451481  0.24948863  0.89844266     0.41990
Cu410      Cu  0.33536984  0.21134311  0.85161428     0.43880
N411        N  0.30962483  0.26482082  0.82515347    -0.33970
N412        N  0.31015243  0.23627379  0.82439966    -0.28220
C413        C  0.29116543  0.22689895  0.80451434    -0.04320
C414        C  0.27778016  0.25068516  0.79236971     0.07900
C415        C  0.28999099  0.27435411  0.80602324     0.01690
H416        H  0.28692732  0.20440541  0.79979054     0.09340
H417        H  0.28522538  0.29689769  0.80210370     0.08420
N418        N  0.35976598  0.19148327  0.88337029    -0.35410
N419        N  0.37785945  0.20537398  0.90051953    -0.27600
C420        C  0.38887690  0.18668422  0.91982774    -0.02830
C421        C  0.37700873  0.15978924  0.91457900     0.05780
C422        C  0.35868868  0.16361735  0.89133363     0.03870
H423        H  0.40348761  0.19248133  0.93708773     0.08970
H424        H  0.34492007  0.14751227  0.88150251     0.07810
N425        N  0.37452883  0.90585307  0.79240922    -0.26580
N426        N  0.35451861  0.89105659  0.80624570    -0.34440
C427        C  0.35502043  0.89862098  0.83418179     0.01760
C428        C  0.37676555  0.91876086  0.83831331     0.07790
C429        C  0.38864791  0.92282609  0.81125696    -0.05310
H430        H  0.34063180  0.88993142  0.85034759     0.08450
H431        H  0.40647192  0.93679368  0.80564481     0.09650
Cu432      Cu  0.32847101  0.85998387  0.78722397     0.44170
Cu433      Cu  0.38120508  0.90290652  0.74857384     0.41990
Cu434      Cu  0.33455468  0.85258397  0.71037256     0.43880
N435        N  0.30537277  0.82974598  0.76360885    -0.33970
N436        N  0.30675257  0.82776109  0.73520649    -0.28220
C437        C  0.28831789  0.80717014  0.72623054    -0.04320
C438        C  0.27503753  0.79533856  0.75020410     0.07900
C439        C  0.28645593  0.81010866  0.77353280     0.01690
H440        H  0.28508604  0.80102882  0.70393900     0.09340
H441        H  0.28089938  0.80729352  0.79601767     0.08420
N442        N  0.36559144  0.87820517  0.69069369    -0.35410
N443        N  0.38242756  0.89663164  0.70457472    -0.27600
C444        C  0.40095180  0.90867702  0.68581950    -0.02830
C445        C  0.39554106  0.89718092  0.65888628     0.05780
C446        C  0.37309724  0.87790702  0.66273036     0.03870
H447        H  0.41794142  0.92360263  0.69161645     0.08970
H448        H  0.36367922  0.86389556  0.64658784     0.07810
O449        O  0.41802178  0.98105303  0.96102521    -0.72230
O450        O  0.41316739  0.01916512  0.03921132    -0.73210
O451        O  0.41818712  0.96113028  0.01963946    -0.61830
O452        O  0.41340946  0.03921125  0.98150112    -0.70240
O453        O  0.36615592  0.03500323  0.97932488    -0.69800
O454        O  0.37039015  0.95856322  0.01828554    -0.61050
O455        O  0.36589589  0.01558183  0.03700040    -0.73560
O456        O  0.37023972  0.97737310  0.96056930    -0.72340
Cu457      Cu  0.41747806  0.00020719  0.00028182     1.04560
Cu458      Cu  0.36664545  0.99650587  0.99866575     1.04330
C459        C  0.39461281  0.97320648  0.94867452     0.93960
C460        C  0.38844919  0.02338880  0.05065678     0.93100
C461        C  0.39470870  0.94809234  0.02582134     0.85250
C462        C  0.38888567  0.04979636  0.97464482     0.91520
N463        N  0.69002158  0.89188139  0.59475147    -0.26580
N464        N  0.67597608  0.88099047  0.61699497    -0.34440
C465        C  0.64752974  0.88337507  0.61208260     0.01760
C466        C  0.64331726  0.89567929  0.58509461     0.07790
C467        C  0.67088685  0.90091003  0.57485539    -0.05310
H468        H  0.63110266  0.87555756  0.62666485     0.08450
H469        H  0.67671381  0.90956403  0.55399531     0.09650
Cu470      Cu  0.69573996  0.85888121  0.65076964     0.44170
Cu471      Cu  0.73449271  0.89391794  0.59267991     0.41990
Cu472      Cu  0.77318369  0.85621419  0.64957530     0.43880
N473        N  0.71986622  0.83155201  0.67710275    -0.33970
N474        N  0.74827736  0.82966720  0.67579607    -0.28220
C475        C  0.75725258  0.80867143  0.69381028    -0.04320
C476        C  0.73335484  0.79693489  0.70737706     0.07900
C477        C  0.71004256  0.81207071  0.69625538     0.01690
H478        H  0.77956601  0.80264557  0.69703690     0.09340
H479        H  0.68749826  0.80867396  0.70116628     0.08420
N480        N  0.79213231  0.88570491  0.62154128    -0.35410
N481        N  0.77815600  0.89874127  0.60032095    -0.27600
C482        C  0.79614513  0.91711811  0.58690924    -0.02830
C483        C  0.82263429  0.91560938  0.60040032     0.05780
C484        C  0.81938246  0.89563607  0.62230458     0.03870
H485        H  0.79006978  0.93132470  0.56941010     0.08970
H486        H  0.83543811  0.88929164  0.63801884     0.07810
N487        N  0.87902958  0.29409276  0.59879657    -0.26580
N488        N  0.86227700  0.30811345  0.61708548    -0.34440
C489        C  0.86176613  0.33618098  0.60980897     0.01760
C490        C  0.87878547  0.33999825  0.58557765     0.07790
C491        C  0.88946603  0.31281246  0.57924989    -0.05310
H492        H  0.84898442  0.35243530  0.62066567     0.08450
H493        H  0.90278383  0.30682856  0.56105914     0.09650
Cu494      Cu  0.83787990  0.28795813  0.64868450     0.44170
Cu495      Cu  0.88501066  0.24992860  0.60025074     0.41990
Cu496      Cu  0.83698428  0.20991404  0.64797255     0.43880
N497        N  0.81115677  0.26323453  0.67468409    -0.33970
N498        N  0.80987856  0.23472341  0.67366912    -0.28220
C499        C  0.78951587  0.22553054  0.69219807    -0.04320
C500        C  0.77762868  0.24942263  0.70573006     0.07900
C501        C  0.79193716  0.27292095  0.69408178     0.01690
H502        H  0.78420579  0.20309193  0.69596480     0.09340
H503        H  0.78834170  0.29548491  0.69898298     0.08420
N504        N  0.86894848  0.19104585  0.62283240    -0.35410
N505        N  0.88668081  0.20573677  0.60600658    -0.27600
C506        C  0.90575954  0.18745625  0.59407231    -0.02830
C507        C  0.89963823  0.15994521  0.60371158     0.05780
C508        C  0.87620275  0.16293401  0.62186297     0.03870
H509        H  0.92298257  0.19378186  0.57967716     0.08970
H510        H  0.86569755  0.14602783  0.63405806     0.07810
N511        N  0.08756509  0.70598224  0.59877119    -0.26580
N512        N  0.10360331  0.69189619  0.61768539    -0.34440
C513        C  0.10396480  0.66377320  0.61059639     0.01760
C514        C  0.08752878  0.66001274  0.58591870     0.07790
C515        C  0.07738703  0.68724710  0.57906043    -0.05310
H516        H  0.11623443  0.64743478  0.62191378     0.08450
H517        H  0.06462128  0.69322932  0.56045456     0.09650
Cu518      Cu  0.12714333  0.71181146  0.65014781     0.44170
Cu519      Cu  0.08193021  0.75014929  0.59956329     0.41990
Cu520      Cu  0.12636234  0.78990671  0.65049217     0.43880
N521        N  0.15298053  0.73663680  0.67700966    -0.33970
N522        N  0.15362689  0.76518192  0.67630157    -0.28220
C523        C  0.17380037  0.77460523  0.69497278    -0.04320
C524        C  0.18622191  0.75085795  0.70830228     0.07900
C525        C  0.17240228  0.72716152  0.69641354     0.01690
H526        H  0.17876398  0.79711320  0.69884871     0.09340
H527        H  0.17661501  0.70463662  0.70100859     0.08420
N528        N  0.09532338  0.80885362  0.62406757    -0.35410
N529        N  0.07922420  0.79419614  0.60557101    -0.27600
C530        C  0.06050590  0.81226827  0.59273614    -0.02830
C531        C  0.06513486  0.83958642  0.60360416     0.05780
C532        C  0.08721463  0.83675988  0.62346749     0.03870
H533        H  0.04430031  0.80585396  0.57720598     0.08970
H534        H  0.09619752  0.85356759  0.63697427     0.07810
O535        O  0.94228298  0.98241188  0.61046074    -0.72230
O536        O  0.02076354  0.01594306  0.61367125    -0.73210
O537        O  0.96462439  0.03896919  0.61216712    -0.61830
O538        O  0.99843911  0.95981420  0.61171743    -0.70240
O539        O  0.00091374  0.96068614  0.56399984    -0.69800
O540        O  0.96480911  0.03973097  0.56425676    -0.61050
O541        O  0.02264728  0.01888142  0.56630572    -0.73560
O542        O  0.94314021  0.98242696  0.56270310    -0.72340
Cu543      Cu  0.98149625  0.99924154  0.61352365     1.04560
Cu544      Cu  0.98300414  0.00040904  0.56251851     1.04330
C545        C  0.93003018  0.97710638  0.58639388     0.93960
C546        C  0.03422878  0.02350468  0.59099339     0.93100
C547        C  0.95903714  0.05167962  0.58839077     0.85250
C548        C  0.00511321  0.94765252  0.58794758     0.91520
N549        N  0.59216055  0.09558504  0.79330900    -0.26580
N550        N  0.60820496  0.11396970  0.80814103    -0.34440
C551        C  0.60712069  0.10671692  0.83622283     0.01760
C552        C  0.58965364  0.08265155  0.83890812     0.07790
C553        C  0.58059824  0.07610322  0.81135744    -0.05310
H554        H  0.61862037  0.11773531  0.85329911     0.08450
H555        H  0.56678062  0.05843162  0.80486579     0.09650
Cu556      Cu  0.63187157  0.14702277  0.78897992     0.44170
Cu557      Cu  0.58648967  0.09753527  0.74936793     0.41990
Cu558      Cu  0.62725463  0.15106786  0.71050867     0.43880
N559        N  0.65591076  0.17558138  0.76396259    -0.33970
N560        N  0.65513784  0.17615557  0.73543349    -0.28220
C561        C  0.67455638  0.19554728  0.72592944    -0.04320
C562        C  0.68791380  0.20810409  0.74956491     0.07900
C563        C  0.67546205  0.19497741  0.77331426     0.01690
H564        H  0.67845565  0.20037115  0.70343383     0.09340
H565        H  0.68080344  0.19866340  0.79573849     0.08420
N566        N  0.59659496  0.12425053  0.69133806    -0.35410
N567        N  0.58202572  0.10445669  0.70579974    -0.27600
C568        C  0.56347358  0.09110601  0.68794791    -0.02830
C569        C  0.56652608  0.10304335  0.66093714     0.05780
C570        C  0.58753144  0.12408329  0.66374150     0.03870
H571        H  0.54839343  0.07447846  0.69434786     0.08970
H572        H  0.59525798  0.13850711  0.64710424     0.07810
N573        N  0.38442435  0.10447705  0.29440149    -0.26580
N574        N  0.36646691  0.12169320  0.30834193    -0.34440
C575        C  0.37389812  0.12236030  0.33632857     0.01760
C576        C  0.39777198  0.10485618  0.34019096     0.07790
C577        C  0.40382802  0.09377510  0.31316249    -0.05310
H578        H  0.36338647  0.13553453  0.35248884     0.08450
H579        H  0.42175153  0.08000300  0.30732329     0.09650
Cu580      Cu  0.33487958  0.14636908  0.28854783     0.44170
Cu581      Cu  0.38315086  0.09840805  0.25024911     0.41990
Cu582      Cu  0.33750193  0.14923417  0.21127393     0.43880
N583        N  0.30877945  0.17321463  0.26412916    -0.33970
N584        N  0.31054621  0.17520239  0.23576515    -0.28220
C585        C  0.29172986  0.19529284  0.22648642    -0.04320
C586        C  0.27725459  0.20631851  0.25018496     0.07900
C587        C  0.28862647  0.19175425  0.27367106     0.01690
H588        H  0.28848054  0.20103484  0.20410065     0.09340
H589        H  0.28308169  0.19476496  0.29613278     0.08420
N590        N  0.36161822  0.11691089  0.19186586    -0.35410
N591        N  0.37751170  0.09789457  0.20602132    -0.27600
C592        C  0.38754681  0.07807776  0.18733412    -0.02830
C593        C  0.37750677  0.08497581  0.16008090     0.05780
C594        C  0.36132101  0.10983268  0.16378734     0.03870
H595        H  0.40009987  0.05933062  0.19337673     0.08970
H596        H  0.34916811  0.12125810  0.14744781     0.07810
N597        N  0.27781237  0.10573547  0.59696906    -0.26580
N598        N  0.29199859  0.12410496  0.61362457    -0.34440
C599        C  0.31998063  0.12394692  0.60602356     0.01760
C600        C  0.32337442  0.10468548  0.58349377     0.07790
C601        C  0.29627564  0.09357653  0.57820529    -0.05310
H602        H  0.33646767  0.13739563  0.61564157     0.08450
H603        H  0.29033366  0.07814362  0.56171341     0.09650
Cu604      Cu  0.27230723  0.15012151  0.64444136     0.44170
Cu605      Cu  0.23388269  0.09888560  0.59951822     0.41990
Cu606      Cu  0.19446737  0.15117787  0.64251378     0.43880
N607        N  0.24734172  0.17637977  0.67092456    -0.33970
N608        N  0.21889759  0.17771521  0.66942222    -0.28220
C609        C  0.20937989  0.19728729  0.68871336    -0.04320
C610        C  0.23295067  0.20861467  0.70329194     0.07900
C611        C  0.25663413  0.19477071  0.69141989     0.01690
H612        H  0.18689896  0.20236956  0.69234017     0.09340
H613        H  0.27905091  0.19807967  0.69699076     0.08420
N614        N  0.17515641  0.11811673  0.61886453    -0.35410
N615        N  0.18961851  0.09829314  0.60432507    -0.27600
C616        C  0.17111939  0.07817061  0.59448055    -0.02830
C617        C  0.14354818  0.08571331  0.60307484     0.05780
C618        C  0.14700011  0.11132819  0.61826407     0.03870
H619        H  0.17747851  0.05886746  0.58296325     0.08970
H620        H  0.13035826  0.12356255  0.62913145     0.07810
O621        O  0.50099869  0.06374631  0.54005727    -0.72230
O622        O  0.46466429  0.06858608  0.46091565    -0.73210
O623        O  0.52236702  0.06562335  0.48204175    -0.61830
O624        O  0.44371496  0.06614235  0.51865861    -0.70240
O625        O  0.44513829  0.11407483  0.52015648    -0.69800
O626        O  0.52327446  0.11356930  0.48403550    -0.61050
O627        O  0.46622842  0.11598739  0.46356822    -0.73560
O628        O  0.50199728  0.11161660  0.54115129    -0.72340
Cu629      Cu  0.48296018  0.06425037  0.50033619     1.04560
Cu630      Cu  0.48428161  0.11536336  0.50233654     1.04330
C631        C  0.50666515  0.08733282  0.55329068     0.93960
C632        C  0.45942385  0.09326734  0.44963364     0.93100
C633        C  0.53490231  0.08963997  0.47689753     0.85250
C634        C  0.43209404  0.09032350  0.52507844     0.91520
N635        N  0.18955390  0.90557193  0.38974971    -0.26580
N636        N  0.17466865  0.88788029  0.37298678    -0.34440
C637        C  0.14667444  0.89548138  0.37401500     0.01760
C638        C  0.14405248  0.91914182  0.39210813     0.07790
C639        C  0.17160959  0.92497502  0.40168678    -0.05310
H640        H  0.12951339  0.88462898  0.36248818     0.08450
H641        H  0.17808126  0.94171119  0.41664342     0.09650
Cu642      Cu  0.19345608  0.85462671  0.34916499     0.44170
Cu643      Cu  0.23326141  0.90199955  0.39681919     0.41990
Cu644      Cu  0.27159622  0.84921060  0.35426090     0.43880
N645        N  0.21813665  0.82581571  0.32495573    -0.33970
N646        N  0.24664234  0.82482576  0.32584827    -0.28220
C647        C  0.25599592  0.80531000  0.30643834    -0.04320
C648        C  0.23226545  0.79310361  0.29295651     0.07900
C649        C  0.20862990  0.80655233  0.30533691     0.01690
H650        H  0.27842344  0.80002825  0.30276831     0.09340
H651        H  0.18617778  0.80305437  0.30001117     0.08420
N652        N  0.29087669  0.87447775  0.38610022    -0.35410
N653        N  0.27659834  0.89359300  0.40176138    -0.27600
C654        C  0.29466409  0.90586178  0.42087444    -0.02830
C655        C  0.32161511  0.89397885  0.41693613     0.05780
C656        C  0.31857030  0.87417282  0.39480370     0.03870
H657        H  0.28859670  0.92215718  0.43646867     0.08970
H658        H  0.33518093  0.86040923  0.38587985     0.07810
N659        N  0.88084640  0.79465842  0.39412875    -0.26580
N660        N  0.87391308  0.80579040  0.36888801    -0.34440
C661        C  0.88414812  0.83287163  0.36752943     0.01760
C662        C  0.89722266  0.83973774  0.39370882     0.07790
C663        C  0.89454294  0.81470715  0.40998258    -0.05310
H664        H  0.88176414  0.84658413  0.34882562     0.08450
H665        H  0.90131877  0.81124072  0.43200346     0.09650
Cu666      Cu  0.84660908  0.78532840  0.33981256     0.44170
Cu667      Cu  0.87362198  0.75204873  0.40462687     0.41990
Cu668      Cu  0.82966875  0.71060527  0.35492502     0.43880
N669        N  0.81428180  0.76246830  0.31871752    -0.33970
N670        N  0.80872851  0.73487498  0.32357395    -0.28220
C671        C  0.78700900  0.72640097  0.30624553    -0.04320
C672        C  0.77809367  0.74994137  0.29017297     0.07900
C673        C  0.79574987  0.77246708  0.29869865     0.01690
H674        H  0.77793896  0.70486921  0.30584711     0.09340
H675        H  0.79539812  0.79441589  0.29068324     0.08420
N676        N  0.85345508  0.69250852  0.38833947    -0.35410
N677        N  0.86972485  0.70772230  0.40616887    -0.27600
C678        C  0.88319854  0.68974259  0.42449495    -0.02830
C679        C  0.87477985  0.66178603  0.41817572     0.05780
C680        C  0.85582394  0.66439425  0.39517009     0.03870
H681        H  0.89813845  0.69657503  0.44108011     0.08970
H682        H  0.84443162  0.64714245  0.38429566     0.07810
N683        N  0.68728061  0.10179159  0.39878846    -0.26580
N684        N  0.67437477  0.12410148  0.38653244    -0.34440
C685        C  0.64717178  0.12579207  0.39618983     0.01760
C686        C  0.64242626  0.10327189  0.41521476     0.07790
C687        C  0.66841115  0.08849078  0.41637043    -0.05310
H688        H  0.63200451  0.14242070  0.38995197     0.08450
H689        H  0.67331748  0.06953368  0.42909059     0.09650
Cu690      Cu  0.69361701  0.15155615  0.35710287     0.44170
Cu691      Cu  0.73058238  0.09213253  0.39287378     0.41990
Cu692      Cu  0.77026936  0.14987827  0.35706932     0.43880
N693        N  0.71798865  0.17653023  0.32935670    -0.33970
N694        N  0.74645483  0.17675690  0.33012901    -0.28220
C695        C  0.75620246  0.19531346  0.31008748    -0.04320
C696        C  0.73269960  0.20715608  0.29581128     0.07900
C697        C  0.70880371  0.19465536  0.30859080     0.01690
H698        H  0.77876291  0.19944238  0.30585031     0.09340
H699        H  0.68639532  0.19876775  0.30353333     0.08420
N700        N  0.78943179  0.11561178  0.37884621    -0.35410
N701        N  0.77519867  0.09340420  0.38965605    -0.27600
C702        C  0.79425790  0.07338548  0.39864996    -0.02830
C703        C  0.82195878  0.08358129  0.39363812     0.05780
C704        C  0.81784003  0.11063202  0.38138626     0.03870
H705        H  0.78826558  0.05263939  0.40751122     0.08970
H706        H  0.83429527  0.12549163  0.37414573     0.07810
N707        N  0.08524532  0.29428772  0.39914729    -0.26580
N708        N  0.10945281  0.30618159  0.39005042    -0.34440
C709        C  0.11105879  0.33324994  0.40019594     0.01760
C710        C  0.08622854  0.33923919  0.41573607     0.07790
C711        C  0.07038799  0.31383824  0.41463858    -0.05310
H712        H  0.12899718  0.34761185  0.39618262     0.08450
H713        H  0.04943985  0.30983442  0.42402908     0.09650
Cu714      Cu  0.13801180  0.28677906  0.36173160     0.44170
Cu715      Cu  0.07510182  0.25135816  0.39220752     0.41990
Cu716      Cu  0.13200672  0.21083410  0.35538289     0.43880
N717        N  0.16123945  0.26344673  0.33154415    -0.33970
N718        N  0.15988799  0.23499910  0.32993961    -0.28220
C719        C  0.17755201  0.22587762  0.30881085    -0.04320
C720        C  0.19030406  0.24983311  0.29621267     0.07900
C721        C  0.17937705  0.27330100  0.31115749     0.01690
H722        H  0.18050672  0.20350570  0.30272576     0.09340
H723        H  0.18463778  0.29582353  0.30784383     0.08420
N724        N  0.09770720  0.19221310  0.37740961    -0.35410
N725        N  0.07625255  0.20678866  0.38927609    -0.27600
C726        C  0.05627812  0.18805327  0.39887337    -0.02830
C727        C  0.06562323  0.16029997  0.39284344     0.05780
C728        C  0.09208894  0.16385066  0.37947835     0.03870
H729        H  0.03600947  0.19426796  0.40859630     0.08970
H730        H  0.10579288  0.14703617  0.37082223     0.07810
O731        O  0.96383913  0.95776209  0.39068361    -0.72230
O732        O  0.00006610  0.03494317  0.38468302    -0.73210
O733        O  0.02161621  0.97831503  0.38890803    -0.61830
O734        O  0.94368852  0.01425495  0.38641896    -0.70240
O735        O  0.94407736  0.02032005  0.43378988    -0.69800
O736        O  0.02161336  0.97957391  0.43676477    -0.61050
O737        O  0.00298243  0.03841100  0.43200695    -0.73560
O738        O  0.96184019  0.96132011  0.43838389    -0.72340
Cu739      Cu  0.98238948  0.99604932  0.38621116     1.04560
Cu740      Cu  0.98269998  0.99991305  0.43708464     1.04330
C741        C  0.95557931  0.94798374  0.41500915     0.93960
C742        C  0.00742759  0.04923028  0.40699161     0.93100
C743        C  0.03414982  0.97348927  0.41294520     0.85250
C744        C  0.93182568  0.02387103  0.40928018     0.91520
C745        C  0.71262596  0.25038343  0.22889324     0.03840
C746        C  0.71191132  0.22945647  0.25089723    -0.12310
C747        C  0.73320677  0.22902830  0.27253605     0.01340
C748        C  0.75526351  0.24971392  0.27198020    -0.10840
C749        C  0.75640850  0.27058063  0.25013463     0.03830
C750        C  0.73501234  0.27087887  0.22863673    -0.10260
H751        H  0.69480060  0.21353205  0.25115654     0.09430
H752        H  0.77171390  0.24955158  0.28859488     0.06960
H753        H  0.73582288  0.28698640  0.21171234     0.06800
C754        C  0.71215834  0.77355409  0.24780501     0.03840
C755        C  0.71113648  0.75191988  0.22652131    -0.12310
C756        C  0.73196502  0.72992711  0.22583619     0.01340
C757        C  0.75370024  0.72935268  0.24690963    -0.10840
C758        C  0.75493122  0.75069819  0.26834957     0.03830
C759        C  0.73419887  0.77281687  0.26865766    -0.10260
H760        H  0.69432155  0.75232855  0.21028498     0.09430
H761        H  0.76981627  0.71238938  0.24651481     0.06960
H762        H  0.73530971  0.78945254  0.28507399     0.06800
C763        C  0.25306371  0.74946658  0.22674948     0.03840
C764        C  0.23202966  0.72777297  0.22727255    -0.12310
C765        C  0.21107540  0.72718968  0.24897646     0.01340
C766        C  0.21124299  0.74859638  0.27047230    -0.10840
C767        C  0.23217512  0.77059340  0.27023158     0.03830
C768        C  0.25304101  0.77091437  0.24821722    -0.10260
H769        H  0.23201462  0.71121114  0.21072837     0.09430
H770        H  0.19511574  0.74811343  0.28735221     0.06960
H771        H  0.26926629  0.78774515  0.24781870     0.06800
C772        C  0.20938101  0.75082619  0.73031360     0.03840
C773        C  0.20983571  0.72980532  0.75217665    -0.12310
C774        C  0.23150519  0.73000276  0.77343956     0.01340
C775        C  0.25288215  0.75149963  0.77258347    -0.10840
C776        C  0.25277009  0.77252569  0.75075709     0.03430
C777        C  0.23101850  0.77201527  0.72968778    -0.10260
H778        H  0.19321000  0.71338695  0.75272752     0.09430
H779        H  0.26956054  0.75197058  0.78895863     0.06960
H780        H  0.23083268  0.78827959  0.71289267     0.06800
C781        C  0.21222030  0.27345199  0.74928923     0.03840
C782        C  0.23370959  0.27245963  0.77054882    -0.12310
C783        C  0.25492657  0.25089690  0.77010441     0.01340
C784        C  0.25436808  0.22990658  0.74820493    -0.10840
C785        C  0.23297333  0.23053206  0.72666296     0.03830
C786        C  0.21193526  0.25243233  0.72736710    -0.10260
H787        H  0.23406714  0.28870938  0.78737108     0.09430
H788        H  0.27072950  0.21320739  0.74782857     0.06960
H789        H  0.19547444  0.25325038  0.71079035     0.06800
C790        C  0.71104797  0.23016724  0.74943539     0.03840
C791        C  0.73281010  0.22924848  0.72835893    -0.12310
C792        C  0.75491636  0.25000803  0.72811569     0.01340
C793        C  0.75514823  0.27173753  0.74923371    -0.10840
C794        C  0.73350781  0.27311798  0.77026522     0.03830
C795        C  0.71149810  0.25224493  0.77030794    -0.10260
H796        H  0.73250358  0.21240483  0.71213557     0.09430
H797        H  0.77212883  0.28780600  0.74921110     0.06960
H798        H  0.69472681  0.25321735  0.78652996     0.06800
C799        C  0.73269607  0.77337239  0.72905654     0.03840
C800        C  0.75310719  0.75085864  0.72830795    -0.12310
C801        C  0.75231805  0.72844538  0.74880743     0.01340
C802        C  0.73076815  0.72872265  0.77008994    -0.10840
C803        C  0.71032763  0.75107782  0.77118293     0.03830
C804        C  0.71145948  0.77331294  0.75064420    -0.10260
H805        H  0.76959127  0.75078552  0.71179029     0.09430
H806        H  0.72990559  0.71152541  0.78590012     0.06960
H807        H  0.69570800  0.79057673  0.75144347     0.06800
C808        C  0.21198576  0.25010791  0.27283134     0.03840
C809        C  0.21191600  0.27191894  0.25170554    -0.12310
C810        C  0.23309805  0.27233688  0.23001939     0.01340
C811        C  0.25439154  0.25077609  0.22964289    -0.10840
C812        C  0.25460907  0.22881685  0.25050212     0.03830
C813        C  0.23327762  0.22859192  0.27193574    -0.10260
H814        H  0.19551345  0.28858163  0.25220158     0.09430
H815        H  0.27082694  0.25113271  0.21306674     0.06960
H816        H  0.23336245  0.21175466  0.28814765     0.06800
C817        C  0.04937006  0.13275757  0.39637081    -0.04630
C818        C  0.03601434  0.12566589  0.42280639    -0.01740
C819        C  0.02172211  0.09887762  0.42618955     0.03240
C820        C  0.02129240  0.07838681  0.40332809    -0.04630
C821        C  0.03385405  0.08629408  0.37643539    -0.01730
C822        C  0.04727412  0.11334832  0.37298672     0.03240
C823        C  0.03733987  0.14569782  0.44687338     0.37890
C824        C  0.03365704  0.06678234  0.35185865     0.37880
C825        C  0.05799979  0.12156110  0.34471233     0.36310
C826        C  0.00672999  0.09317222  0.45305143     0.36310
N827        N  0.06645124  0.12801226  0.32214644    -0.38510
N828        N  0.99469445  0.08886104  0.47447256    -0.38510
N829        N  0.03367998  0.05139214  0.33216999    -0.37960
N830        N  0.03824228  0.16163312  0.46610189    -0.37960
C831        C  0.85004998  0.06819031  0.39816928    -0.04630
C832        C  0.87228290  0.07062325  0.37739336    -0.01740
C833        C  0.89938609  0.05782299  0.38226619     0.03240
C834        C  0.90399234  0.03983630  0.40652174    -0.04630
C835        C  0.88160925  0.03654150  0.42693242    -0.01730
C836        C  0.85507820  0.05123657  0.42317974     0.03240
C837        C  0.86717162  0.08495526  0.35001181     0.37890
C838        C  0.88542331  0.01741781  0.45143771     0.37880
C839        C  0.83331682  0.04918694  0.44551665     0.36310
C840        C  0.92287455  0.06413953  0.36251905     0.36310
N841        N  0.81607327  0.04742516  0.46344752    -0.38510
N842        N  0.94163556  0.06931334  0.34692421    -0.38510
N843        N  0.88835851  0.00209986  0.47094414    -0.37960
N844        N  0.86331597  0.09617267  0.32803872    -0.37960
C845        C  0.91001120  0.86819032  0.40259880    -0.04630
C846        C  0.89872895  0.89439163  0.39134717    -0.01740
C847        C  0.91321302  0.92067263  0.39625275     0.03240
C848        C  0.93729076  0.92171517  0.41484764    -0.04630
C849        C  0.94499597  0.89685340  0.43041155    -0.01730
C850        C  0.93330117  0.86979533  0.42257796     0.03240
C851        C  0.87172976  0.89495216  0.37549831     0.37890
C852        C  0.96334058  0.89924793  0.45558106     0.37880
C853        C  0.94692307  0.84396516  0.43384234     0.36310
C854        C  0.90257000  0.94704134  0.38297361     0.36310
N855        N  0.95828935  0.82357601  0.44278224    -0.38510
N856        N  0.89400680  0.96800592  0.37240985    -0.38510
N857        N  0.97654640  0.90102469  0.47670118    -0.37960
N858        N  0.85016152  0.89573474  0.36292083    -0.37960
C859        C  0.11716963  0.93424586  0.40046668    -0.04630
C860        C  0.11271076  0.96336194  0.39268871    -0.01740
C861        C  0.08610803  0.97685175  0.39871917     0.03240
C862        C  0.06376566  0.96128654  0.41238178    -0.04630
C863        C  0.06928786  0.93305562  0.42237555    -0.01730
C864        C  0.09580526  0.91947414  0.41622682     0.03240
C865        C  0.13507024  0.97914653  0.37755559     0.37890
C866        C  0.04778088  0.91759739  0.43867032     0.37880
C867        C  0.10122797  0.89029646  0.42631683     0.36310
C868        C  0.08204727  0.00704581  0.39155226     0.36310
N869        N  0.10561466  0.86706110  0.43440300    -0.38510
N870        N  0.07936028  0.03128883  0.38618227    -0.38510
N871        N  0.03144283  0.90449060  0.45210264    -0.37960
N872        N  0.15288051  0.99176709  0.36547985    -0.37960
C873        C  0.56252719  0.09015715  0.46112031    -0.04630
C874        C  0.58897042  0.08810581  0.47598753    -0.01740
C875        C  0.61523903  0.09149376  0.46097895     0.03240
C876        C  0.61511842  0.09697062  0.43091022    -0.04630
C877        C  0.58847038  0.09784998  0.41597419    -0.01730
C878        C  0.56234161  0.09468183  0.43107600     0.03240
C879        C  0.58915061  0.08363718  0.50693154     0.37890
C880        C  0.58774171  0.10162589  0.38490507     0.37880
C881        C  0.53514330  0.09657308  0.41564776     0.36310
C882        C  0.64217499  0.09078093  0.47691294     0.36310
N883        N  0.51362094  0.09817956  0.40309426    -0.38510
N884        N  0.66358238  0.09014932  0.48976793    -0.38510
N885        N  0.58708068  0.10472575  0.36014671    -0.37960
N886        N  0.58961072  0.08026642  0.53164499    -0.37960
C887        C  0.35018906  0.09870849  0.56733879    -0.04630
C888        C  0.37211515  0.08176391  0.57996471    -0.01740
C889        C  0.39861332  0.07793705  0.56558756     0.03240
C890        C  0.40326379  0.09120227  0.53858423    -0.04630
C891        C  0.38081763  0.10702570  0.52535197    -0.01730
C892        C  0.35429881  0.11073140  0.53969072     0.03240
C893        C  0.36735703  0.06830220  0.60779045     0.37890
C894        C  0.38497521  0.11926129  0.49683302     0.37880
C895        C  0.33153669  0.12758869  0.52633739     0.36310
C896        C  0.42150034  0.06141194  0.57915384     0.36310
N897        N  0.31339710  0.14103591  0.51565354    -0.38510
N898        N  0.43978324  0.04826033  0.58996187    -0.38510
N899        N  0.38836778  0.12888909  0.47405925    -0.37960
N900        N  0.36346403  0.05751083  0.62994822    -0.37960
C901        C  0.41507842  0.10161616  0.36698413    -0.04630
C902        C  0.42125176  0.07401759  0.37820251    -0.01740
C903        C  0.43611649  0.07110293  0.40468404     0.03240
C904        C  0.44509142  0.09597093  0.42046233    -0.04630
C905        C  0.43985720  0.12372891  0.40806008    -0.01730
C906        C  0.42510190  0.12634682  0.38158867     0.03240
C907        C  0.41152839  0.04843588  0.36286442     0.37890
C908        C  0.44946104  0.15017555  0.42197056     0.37880
C909        C  0.42102099  0.15476618  0.36887720     0.36310
C910        C  0.44168536  0.04221212  0.41538683     0.36310
N911        N  0.41786321  0.17741545  0.35879989    -0.38510
N912        N  0.44607158  0.01913878  0.42389914    -0.38510
N913        N  0.45694941  0.17141542  0.43283895    -0.37960
N914        N  0.40386446  0.02802162  0.35063672    -0.37960
C915        C  0.54906106  0.09646748  0.63508977    -0.04630
C916        C  0.55654509  0.07315218  0.61699262    -0.01740
C917        C  0.54122408  0.06837977  0.59107966     0.03240
C918        C  0.51874600  0.08741015  0.58300710    -0.04630
C919        C  0.50937527  0.10873570  0.60281970    -0.01730
C920        C  0.52472801  0.11346680  0.62859664     0.03240
C921        C  0.58051952  0.05456981  0.62473194     0.37890
C922        C  0.48339560  0.12531875  0.59707725     0.37880
C923        C  0.51557299  0.13595331  0.64839781     0.36310
C924        C  0.54910859  0.04432706  0.57265563     0.36310
N925        N  0.50819740  0.15385769  0.66418041    -0.38510
N926        N  0.55535471  0.02496926  0.55813635    -0.38510
N927        N  0.46256913  0.13833228  0.59251167    -0.37960
N928        N  0.59965534  0.03978224  0.63097794    -0.37960
C929        C  0.06307355  0.03827800  0.59398145    -0.04630
C930        C  0.08221526  0.04097015  0.57019895    -0.01740
C931        C  0.10848702  0.05631005  0.57311282     0.03240
C932        C  0.11653652  0.06842532  0.59994808    -0.04630
C933        C  0.09852823  0.06418715  0.62406092    -0.01730
C934        C  0.07175921  0.05011893  0.62106073     0.03240
C935        C  0.07545132  0.02777826  0.54259614     0.37890
C936        C  0.10795650  0.07329794  0.65257294     0.37880
C937        C  0.05321727  0.04883556  0.64627476     0.36310
C938        C  0.12692851  0.06008842  0.54813699     0.36310
N939        N  0.03859164  0.04803796  0.66646539    -0.38510
N940        N  0.14160370  0.06297015  0.52817982    -0.38510
N941        N  0.11537736  0.08037697  0.67535181    -0.37960
N942        N  0.07030374  0.01733028  0.52048946    -0.37960
C943        C  0.01817950  0.91832597  0.58879313    -0.04630
C944        C  0.04226759  0.91137700  0.57138237    -0.01740
C945        C  0.05716358  0.88514386  0.57571856     0.03240
C946        C  0.04814035  0.86584366  0.59738415    -0.04630
C947        C  0.02304745  0.87177005  0.61340041    -0.01730
C948        C  0.00790124  0.89775792  0.60891754     0.03240
C949        C  0.05253164  0.93150500  0.54975201     0.37890
C950        C  0.01305176  0.85126859  0.63483401     0.37880
C951        C  0.98137031  0.90301377  0.62467332     0.36310
C952        C  0.08209270  0.87812709  0.55819560     0.36310
N953        N  0.96015951  0.90720335  0.63711606    -0.38510
N954        N  0.10193245  0.87243484  0.54419310    -0.38510
N955        N  0.00507589  0.83494061  0.65193960    -0.37960
N956        N  0.06073929  0.94740822  0.53235950    -0.37960
C957        C  0.91574878  0.13307793  0.59738086    -0.04630
C958        C  0.90180598  0.10982907  0.58341510    -0.01740
C959        C  0.91649477  0.08351186  0.57917651     0.03240
C960        C  0.94507804  0.08030681  0.58914251    -0.04630
C961        C  0.95948218  0.10394968  0.60184011    -0.01730
C962        C  0.94486364  0.13031348  0.60596167     0.03240
C963        C  0.87238963  0.11307277  0.57323204     0.37890
C964        C  0.98948215  0.10122494  0.61034751     0.37880
C965        C  0.95947630  0.15416565  0.62008900     0.36310
C966        C  0.90189500  0.05942681  0.56541108     0.36310
N967        N  0.97117105  0.17315033  0.63138491    -0.38510
N968        N  0.89030757  0.04021980  0.55438060    -0.38510
N969        N  0.01347302  0.09922218  0.61694095    -0.37960
N970        N  0.84894151  0.11572811  0.56507455    -0.37960
C971        C  0.84833975  0.93358215  0.59452597    -0.04630
C972        C  0.86617534  0.92741560  0.57070689    -0.01740
C973        C  0.89235453  0.94253675  0.56691707     0.03240
C974        C  0.90051005  0.96434065  0.58677414    -0.04630
C975        C  0.88101961  0.97230895  0.60895448    -0.01730
C976        C  0.85539430  0.95655655  0.61316704     0.03240
C977        C  0.85801405  0.90475144  0.55067596     0.37890
C978        C  0.88695190  0.99712878  0.62721329     0.37880
C979        C  0.83625839  0.96396652  0.63679054     0.36310
C980        C  0.91125310  0.93464023  0.54330125     0.36310
N981        N  0.82105370  0.96988318  0.65566023    -0.38510
N982        N  0.92621398  0.92830755  0.52436907    -0.38510
N983        N  0.89165695  0.01698233  0.64166214    -0.37960
N984        N  0.85138610  0.88670885  0.53470141    -0.37960
C985        C  0.38558030  0.03763691  0.07974170    -0.04630
C986        C  0.41008734  0.04219530  0.09771460    -0.01740
C987        C  0.40752283  0.05780891  0.12378706     0.03240
C988        C  0.38031828  0.06763275  0.13320943    -0.04630
C989        C  0.35556003  0.06095530  0.11682421    -0.01730
C990        C  0.35810190  0.04690070  0.08999176     0.03240
C991        C  0.43803810  0.03027034  0.09021641     0.37890
C992        C  0.32705967  0.06755306  0.12806528     0.37880
C993        C  0.33191661  0.04244752  0.07331412     0.36310
C994        C  0.43318461  0.06440630  0.14052160     0.36310
N995        N  0.31090636  0.03899632  0.06024198    -0.38510
N996        N  0.45370009  0.06965501  0.15377253    -0.38510
N997        N  0.30431983  0.07259114  0.13700512    -0.37960
N998        N  0.46030197  0.02055450  0.08448234    -0.37960
C999        C  0.38537641  0.93247881  0.86609694    -0.04630
C1000       C  0.38665218  0.91558359  0.89149370    -0.01740
C1001       C  0.39017033  0.92894407  0.91851402     0.03240
C1002       C  0.39504611  0.95891308  0.92028154    -0.04630
C1003       C  0.39615680  0.97561395  0.89491414    -0.01730
C1004       C  0.39067413  0.96260347  0.86789530     0.03240
C1005       C  0.38459764  0.88432325  0.89003543     0.37890
C1006       C  0.40114872  0.00651919  0.89686078     0.37880
C1007       C  0.38858981  0.98069658  0.84245150     0.36310
C1008       C  0.38688374  0.91197365  0.94457206     0.36310
N1009       N  0.38683618  0.99529224  0.82226664    -0.38510
N1010       N  0.38340757  0.89815174  0.96503753    -0.38510
N1011       N  0.40512370  0.03115155  0.89845069    -0.37960
N1012       N  0.38305774  0.85939213  0.88897048    -0.37960
C1013       C  0.38065283  0.13307386  0.93187183    -0.04630
C1014       C  0.35644999  0.11996194  0.94466407    -0.01740
C1015       C  0.35929561  0.09357920  0.95956183     0.03240
C1016       C  0.38649121  0.07929849  0.96112044    -0.04630
C1017       C  0.41105915  0.09356380  0.94942513    -0.01730
C1018       C  0.40807466  0.12039698  0.93520391     0.03240
C1019       C  0.32851712  0.13413420  0.94323872     0.37890
C1020       C  0.43959782  0.08084774  0.95133914     0.37880
C1021       C  0.43326320  0.13462917  0.92324587     0.36310
C1022       C  0.33396676  0.08195454  0.97382995     0.36310
N1023       N  0.45337210  0.14602972  0.91386163    -0.38510
N1024       N  0.31368114  0.07288106  0.98516742    -0.38510
N1025       N  0.46243792  0.07087653  0.95284571    -0.37960
N1026       N  0.30626212  0.14540221  0.94214626    -0.37960
C1027       C  0.38554740  0.86761160  0.07121324    -0.04630
C1028       C  0.37432036  0.89361991  0.08296519    -0.01740
C1029       C  0.37786859  0.91994124  0.06825814     0.03240
C1030       C  0.39481746  0.92123306  0.04309454    -0.04630
C1031       C  0.40970816  0.89643281  0.03378299    -0.01730
C1032       C  0.40385787  0.86939190  0.04666347     0.03240
C1033       C  0.35973073  0.89392888  0.11063490     0.37890
C1034       C  0.43053875  0.89858649  0.01056083     0.37880
C1035       C  0.41541702  0.84361884  0.03318341     0.36310
C1036       C  0.36441227  0.94600638  0.07944437     0.36310
N1037       N  0.42471681  0.82328711  0.02201084    -0.38510
N1038       N  0.35359968  0.96670282  0.08833992    -0.38510
N1039       N  0.44737517  0.90032217  0.99224310    -0.37960
N1040       N  0.34804961  0.89449964  0.13266995    -0.37960
C1041       C  0.57432404  0.03720388  0.91820541    -0.04630
C1042       C  0.56015124  0.06367035  0.91277141    -0.01740
C1043       C  0.56445436  0.07808967  0.88635250     0.03240
C1044       C  0.58325634  0.06636523  0.86553177    -0.04630
C1045       C  0.59641935  0.03933300  0.87040837    -0.01730
C1046       C  0.59184550  0.02470105  0.89662611     0.03240
C1047       C  0.54251215  0.07694367  0.93493247     0.37890
C1048       C  0.61541312  0.02699424  0.84882448     0.37880
C1049       C  0.60511014  0.99668338  0.90138556     0.36310
C1050       C  0.54948521  0.10497676  0.88049368     0.36310
N1051       N  0.61559767  0.97432669  0.90525996    -0.38510
N1052       N  0.53742292  0.12632803  0.87568579    -0.38510
N1053       N  0.63061056  0.01715740  0.83165175    -0.37960
N1054       N  0.52861180  0.08764163  0.95268067    -0.37960
C1055       C  0.57313283  0.96514204  0.08062543    -0.04630
C1056       C  0.59670231  0.97113323  0.09924613    -0.01740
C1057       C  0.60034990  0.95534268  0.12492968     0.03240
C1058       C  0.57991857  0.93433581  0.13290744    -0.04630
C1059       C  0.55508221  0.93009719  0.11588110    -0.01730
C1060       C  0.55176123  0.94518172  0.08963184     0.03240
C1061       C  0.61698828  0.99403975  0.09247804     0.37890
C1062       C  0.53341313  0.90941581  0.12495106     0.37880
C1063       C  0.52689875  0.93907704  0.07159164     0.36310
C1064       C  0.62513814  0.96083750  0.14330026     0.36310
N1065       N  0.50697725  0.93414672  0.05734234    -0.38510
N1066       N  0.64492018  0.96522540  0.15790752    -0.38510
N1067       N  0.51613157  0.89297048  0.13228726    -0.37960
N1068       N  0.63309519  0.01235547  0.08712548    -0.37960
C1069       C  0.58048508  0.86623181  0.93422312    -0.04630
C1070       C  0.55727913  0.88450027  0.92691041    -0.01740
C1071       C  0.55346073  0.91101197  0.94150224     0.03240
C1072       C  0.57274225  0.91913412  0.96380232    -0.04630
C1073       C  0.59452942  0.89950761  0.97257354    -0.01730
C1074       C  0.59864047  0.87340503  0.95751478     0.03240
C1075       C  0.53777787  0.87627710  0.90382774     0.37890
C1076       C  0.61245221  0.90581127  0.99751381     0.37880
C1077       C  0.62171651  0.85393419  0.96588559     0.36310
C1078       C  0.53043920  0.93027880  0.93260656     0.36310
N1079       N  0.64013015  0.83842968  0.97256095    -0.38510
N1080       N  0.51199569  0.94555378  0.92548724    -0.38510
N1081       N  0.62664290  0.91082826  0.01745679    -0.37960
N1082       N  0.52221140  0.86960984  0.88546110    -0.37960
C1083       C  0.57498024  0.08234739  0.03518223    -0.04630
C1084       C  0.59559772  0.10253688  0.02521157    -0.01740
C1085       C  0.60018847  0.12852841  0.04036121     0.03240
C1086       C  0.58376610  0.13480621  0.06511872    -0.04630
C1087       C  0.56178593  0.11575469  0.07391647    -0.01730
C1088       C  0.55751034  0.08944509  0.05915576     0.03240
C1089       C  0.61177237  0.09683059  0.99903164     0.37890
C1090       C  0.54392321  0.12305863  0.09852793     0.37880
C1091       C  0.53612688  0.06918411  0.06964295     0.36310
C1092       C  0.62198130  0.14875567  0.03060862     0.36310
N1093       N  0.51908364  0.05304715  0.07810604    -0.38510
N1094       N  0.63936937  0.16487089  0.02281049    -0.38510
N1095       N  0.52963296  0.12899548  0.11809207    -0.37960
N1096       N  0.62453901  0.09225244  0.97809277    -0.37960
C1097       C  0.41397425  0.36666957  0.90412370    -0.04630
C1098       C  0.40033003  0.39017311  0.91792533    -0.01740
C1099       C  0.41550101  0.41624113  0.92248620     0.03240
C1100       C  0.44449972  0.41876641  0.91361438    -0.04630
C1101       C  0.45879886  0.39431424  0.90243561    -0.01730
C1102       C  0.44342081  0.36869036  0.89678171     0.03240
C1103       C  0.37081064  0.38736945  0.92780198     0.37890
C1104       C  0.48978295  0.39451412  0.89897808     0.37880
C1105       C  0.45772324  0.34486569  0.88228749     0.36310
C1106       C  0.40115836  0.44046711  0.93610440     0.36310
N1107       N  0.46911411  0.32599438  0.87052891    -0.38510
N1108       N  0.38959562  0.45960735  0.94720898    -0.38510
N1109       N  0.51460626  0.39324729  0.89722020    -0.37960
N1110       N  0.34731558  0.38502453  0.93583190    -0.37960
C1111       C  0.52085311  0.57941520  0.90698287    -0.04630
C1112       C  0.50396414  0.60444561  0.90309747    -0.01740
C1113       C  0.51737980  0.63141684  0.89841169     0.03240
C1114       C  0.54784568  0.63354814  0.89835708    -0.04630
C1115       C  0.56457405  0.60866141  0.90413268    -0.01730
C1116       C  0.55113688  0.58162942  0.90773129     0.03240
C1117       C  0.47275262  0.60239404  0.90372264     0.37890
C1118       C  0.59566709  0.61084931  0.90703913     0.37880
C1119       C  0.56866705  0.55591834  0.91095324     0.36310
C1120       C  0.49972464  0.65657536  0.89239198     0.36310
N1121       N  0.58308356  0.53564494  0.91303533    -0.38510
N1122       N  0.48553672  0.67657506  0.88756979    -0.38510
N1123       N  0.62044410  0.61258187  0.90950869    -0.37960
N1124       N  0.44785485  0.60095344  0.90443606    -0.37960
C1125       C  0.34998445  0.56960734  0.90005394    -0.04630
C1126       C  0.35737432  0.55704037  0.92688680    -0.01740
C1127       C  0.38396992  0.54237298  0.93041345     0.03240
C1128       C  0.40375788  0.54045151  0.90717003    -0.04630
C1129       C  0.39643125  0.55394931  0.88055972    -0.01730
C1130       C  0.36941147  0.56725228  0.87677750     0.03240
C1131       C  0.33784534  0.55956403  0.95117736     0.37890
C1132       C  0.41700426  0.55562166  0.85698566     0.37880
C1133       C  0.36125939  0.57736243  0.84823270     0.36310
C1134       C  0.39062012  0.52937496  0.95809799     0.36310
N1135       N  0.35486549  0.58521617  0.82540715    -0.38510
N1136       N  0.39573803  0.51918197  0.98031522    -0.38510
N1137       N  0.43334399  0.55718811  0.83820842    -0.37960
N1138       N  0.32228940  0.56145905  0.97058017    -0.37960
C1139       C  0.61619490  0.42925414  0.90187939    -0.04630
C1140       C  0.61256148  0.45072676  0.92355579    -0.01740
C1141       C  0.58517707  0.46358929  0.92814497     0.03240
C1142       C  0.56250734  0.45885057  0.90823356    -0.04630
C1143       C  0.56689078  0.43885747  0.88551658    -0.01730
C1144       C  0.59192209  0.42185360  0.88476460     0.03240
C1145       C  0.63684663  0.46098836  0.94038814     0.37890
C1146       C  0.54591200  0.43540832  0.86241730     0.37880
C1147       C  0.59135200  0.39563529  0.86755072     0.36310
C1148       C  0.58098053  0.48272238  0.95258968     0.36310
N1149       N  0.59043727  0.37469272  0.85392251    -0.38510
N1150       N  0.57770966  0.49785252  0.97220190    -0.38510
N1151       N  0.52947022  0.43277194  0.84378512    -0.37960
N1152       N  0.65597567  0.46974751  0.95387322    -0.37960
C1153       C  0.06351406  0.58963879  0.96242743    -0.04630
C1154       C  0.08230996  0.61269358  0.96978795    -0.01740
C1155       C  0.10843839  0.61649791  0.95484834     0.03240
C1156       C  0.11659966  0.59675764  0.93323771    -0.04630
C1157       C  0.09944480  0.57221843  0.92779667    -0.01730
C1158       C  0.07289887  0.56863179  0.94225182     0.03240
C1159       C  0.07534040  0.63209478  0.99341621     0.37890
C1160       C  0.10874466  0.55113146  0.90659352     0.37880
C1161       C  0.05519682  0.54366603  0.93564977     0.36310
C1162       C  0.12708863  0.64069616  0.96186774     0.36310
N1163       N  0.04140130  0.52349836  0.93041741    -0.38510
N1164       N  0.14193566  0.65998528  0.96751500    -0.38510
N1165       N  0.11626588  0.53432973  0.88971187    -0.37960
N1166       N  0.06982371  0.64742924  0.01235077    -0.37960
C1167       C  0.02012601  0.59269681  0.08009483    -0.04630
C1168       C  0.03222360  0.56825945  0.09429576    -0.01740
C1169       C  0.04608850  0.57142219  0.12133486     0.03240
C1170       C  0.04877815  0.59890994  0.13410193    -0.04630
C1171       C  0.03591314  0.62300547  0.12088649    -0.01730
C1172       C  0.02129031  0.62001197  0.09443715     0.03240
C1173       C  0.03128442  0.53981320  0.08118531     0.37890
C1174       C  0.03730492  0.65109518  0.13488725     0.37880
C1175       C  0.00711084  0.64547013  0.08277448     0.36310
C1176       C  0.05830127  0.54643505  0.13576820     0.36310
N1177       N  0.99590254  0.66587633  0.07367765    -0.38510
N1178       N  0.06793567  0.52650310  0.14735481    -0.38510
N1179       N  0.03842705  0.67346658  0.14598949    -0.37960
N1180       N  0.03069393  0.51703387  0.07088863    -0.37960
C1181       C  0.91060242  0.60019911  0.86692537    -0.04630
C1182       C  0.92829001  0.57556656  0.87147864    -0.01740
C1183       C  0.94349196  0.57204608  0.89776363     0.03240
C1184       C  0.93961014  0.59193452  0.92057610    -0.04630
C1185       C  0.92042291  0.61544382  0.91657773    -0.01730
C1186       C  0.90765680  0.62054953  0.88952697     0.03240
C1187       C  0.93077105  0.55345970  0.84942995     0.37890
C1188       C  0.91291106  0.63426722  0.94053691     0.37880
C1189       C  0.89315693  0.64794770  0.88478176     0.36310
C1190       C  0.96388847  0.54851053  0.90074168     0.36310
N1191       N  0.88191479  0.66998003  0.88117460    -0.38510
N1192       N  0.98031630  0.52982915  0.90288773    -0.38510
N1193       N  0.90674961  0.64913427  0.95963891    -0.37960
N1194       N  0.93290282  0.53569447  0.83198129    -0.37960
C1195       C  0.84977667  0.59926506  0.06679901    -0.04630
C1196       C  0.87591818  0.60096150  0.08258007    -0.01740
C1197       C  0.90254367  0.59716384  0.06853466     0.03240
C1198       C  0.90334319  0.59074166  0.03887069    -0.04630
C1199       C  0.87744656  0.58683628  0.02344600    -0.01730
C1200       C  0.85068613  0.59147924  0.03720560     0.03240
C1201       C  0.87563464  0.60588909  0.11349614     0.37890
C1202       C  0.87843408  0.57867253  0.99322775     0.37880
C1203       C  0.82437643  0.58954663  0.02036643     0.36310
C1204       C  0.92923164  0.59965002  0.08474350     0.36310
N1205       N  0.80348971  0.58793990  0.00675837    -0.38510
N1206       N  0.95037504  0.60156897  0.09788210    -0.38510
N1207       N  0.87926434  0.57197073  0.96918987    -0.37960
N1208       N  0.87552203  0.60980641  0.13815162    -0.37960
C1209       C  0.85048702  0.39715677  0.93315377    -0.04630
C1210       C  0.85649868  0.42335097  0.94772275    -0.01740
C1211       C  0.88334627  0.42742521  0.96171813     0.03240
C1212       C  0.90490820  0.40576460  0.96023906    -0.04630
C1213       C  0.89909701  0.38007540  0.94456970    -0.01730
C1214       C  0.87174083  0.37529264  0.93239901     0.03240
C1215       C  0.83534051  0.44644165  0.94790211     0.37890
C1216       C  0.92148061  0.35858126  0.93991660     0.37880
C1217       C  0.86524615  0.34706504  0.92030050     0.36310
C1218       C  0.88829813  0.45370289  0.97807441     0.36310
N1219       N  0.86016144  0.32448294  0.91084891    -0.38510
N1220       N  0.89212061  0.47469858  0.99110460    -0.38510
N1221       N  0.93928161  0.34147895  0.93609194    -0.37960
N1222       N  0.81854559  0.46493947  0.94805929    -0.37960
C1223       C  0.91080358  0.40527737  0.13192856    -0.04630
C1224       C  0.89937140  0.39382038  0.10588502    -0.01740
C1225       C  0.91413255  0.39764382  0.07967945     0.03240
C1226       C  0.93916191  0.41487975  0.07854600    -0.04630
C1227       C  0.94827631  0.42975510  0.10343939    -0.01730
C1228       C  0.93523351  0.42379136  0.13034692     0.03240
C1229       C  0.87203330  0.37855791  0.10544672     0.37890
C1230       C  0.97143152  0.45071411  0.10152582     0.37880
C1231       C  0.94844484  0.43534815  0.15625629     0.36310
C1232       C  0.90319356  0.38407989  0.05356576     0.36310
N1233       N  0.95937610  0.44458087  0.17674541    -0.38510
N1234       N  0.89450671  0.37319345  0.03282076    -0.38510
N1235       N  0.98969774  0.46767495  0.10004411    -0.37960
N1236       N  0.85029182  0.36629516  0.10479957    -0.37960
C1237       C  0.05097472  0.39591306  0.86811788    -0.04630
C1238       C  0.03286521  0.42007254  0.87319262    -0.01740
C1239       C  0.01859680  0.42330513  0.89995204     0.03240
C1240       C  0.02387651  0.40366278  0.92275242    -0.04630
C1241       C  0.04258427  0.37999077  0.91787535    -0.01730
C1242       C  0.05475887  0.37536753  0.89045467     0.03240
C1243       C  0.02915964  0.44211639  0.85127001     0.37890
C1244       C  0.05017228  0.36050857  0.94125097     0.37880
C1245       C  0.06990440  0.34843413  0.88514257     0.36310
C1246       C  0.99743445  0.44613168  0.90339720     0.36310
N1247       N  0.08178239  0.32682077  0.88108719    -0.38510
N1248       N  0.98025289  0.46405791  0.90607014    -0.38510
N1249       N  0.05637537  0.34508149  0.95988885    -0.37960
N1250       N  0.02606553  0.45984474  0.83394571    -0.37960
C1251       C  0.06289692  0.41227560  0.04132983    -0.04630
C1252       C  0.06491021  0.40880487  0.07142586    -0.01740
C1253       C  0.09197843  0.40495317  0.08461335     0.03240
C1254       C  0.11707110  0.40197516  0.06755351    -0.04630
C1255       C  0.11506384  0.40588156  0.03729719    -0.01730
C1256       C  0.08808824  0.41171332  0.02435891     0.03240
C1257       C  0.03900830  0.40741433  0.08880938     0.37890
C1258       C  0.14023480  0.40217615  0.01913659     0.37880
C1259       C  0.08603297  0.41584843  0.99339162     0.36310
C1260       C  0.09387124  0.40451169  0.11586080     0.36310
N1261       N  0.08447472  0.41929250  0.96871841    -0.38510
N1262       N  0.09533837  0.40432669  0.14077939    -0.38510
N1263       N  0.16019761  0.39911763  0.00449853    -0.37960
N1264       N  0.01864672  0.40547734  0.10303426    -0.37960
C1265       C  0.40220784  0.46285205  0.08941461    -0.04630
C1266       C  0.38205805  0.47339490  0.10976560    -0.01740
C1267       C  0.35597519  0.45856731  0.11444989     0.03240
C1268       C  0.34965713  0.43341405  0.09853397    -0.04630
C1269       C  0.36871747  0.42400051  0.07680346    -0.01730
C1270       C  0.39501257  0.43864102  0.07223853     0.03240
C1271       C  0.38795955  0.49981499  0.12562483     0.37890
C1272       C  0.36139514  0.39895679  0.05946254     0.37880
C1273       C  0.41508672  0.42796599  0.05076919     0.36310
C1274       C  0.33575923  0.46898489  0.13593369     0.36310
N1275       N  0.43105299  0.41945319  0.03358923    -0.38510
N1276       N  0.31964695  0.47731107  0.15306498    -0.38510
N1277       N  0.35544702  0.37902351  0.04560293    -0.37960
N1278       N  0.39270151  0.52093314  0.13814219    -0.37960
C1279       C  0.41771288  0.63374814  0.10150321    -0.04630
C1280       C  0.43269621  0.62127636  0.12474564    -0.01740
C1281       C  0.44797269  0.59525704  0.12098946     0.03240
C1282       C  0.44738162  0.58051218  0.09397903    -0.04630
C1283       C  0.43327705  0.59409273  0.07026589    -0.01730
C1284       C  0.41882535  0.62071781  0.07408623     0.03240
C1285       C  0.43272244  0.63557683  0.15266017     0.37890
C1286       C  0.43292324  0.58088275  0.04187306     0.37880
C1287       C  0.40439232  0.63443530  0.04989415     0.36310
C1288       C  0.46478419  0.58446490  0.14514900     0.36310
N1289       N  0.39296244  0.64541978  0.03059222    -0.38510
N1290       N  0.47814017  0.57604648  0.16450986    -0.38510
N1291       N  0.43258095  0.57060880  0.01910509    -0.37960
N1292       N  0.43269340  0.64697304  0.17488325    -0.37960
C1293       C  0.56380701  0.53595063  0.08973189    -0.04630
C1294       C  0.58759439  0.52102911  0.10150487    -0.01740
C1295       C  0.61408393  0.53539510  0.10557662     0.03240
C1296       C  0.61669052  0.56497287  0.09848745    -0.04630
C1297       C  0.59307444  0.57963848  0.08592134    -0.01730
C1298       C  0.56674984  0.56509262  0.08136701     0.03240
C1299       C  0.58467968  0.49094872  0.10982117     0.37890
C1300       C  0.59586395  0.60970301  0.07756344     0.37880
C1301       C  0.54225696  0.58050700  0.06935420     0.36310
C1302       C  0.63820720  0.51998679  0.11827882     0.36310
N1303       N  0.52269088  0.59277303  0.05982792    -0.38510
N1304       N  0.65742197  0.50761619  0.12836485    -0.38510
N1305       N  0.59809434  0.63369344  0.07093243    -0.37960
N1306       N  0.58238272  0.46700659  0.11660038    -0.37960
C1307       C  0.51963666  0.41755695  0.08571695    -0.04630
C1308       C  0.54733987  0.41314597  0.07395672    -0.01740
C1309       C  0.56234471  0.38724853  0.07971346     0.03240
C1310       C  0.54937243  0.36543539  0.09654966    -0.04630
C1311       C  0.52072931  0.36893849  0.10622909    -0.01730
C1312       C  0.50595137  0.39499033  0.10091594     0.03240
C1313       C  0.56083441  0.43562386  0.05688282     0.37890
C1314       C  0.50683418  0.34624975  0.12270436     0.37880
C1315       C  0.47656454  0.39866533  0.11106751     0.36310
C1316       C  0.59116126  0.38302341  0.06836801     0.36310
N1317       N  0.45310896  0.40168027  0.11901480    -0.38510
N1318       N  0.61415128  0.37958466  0.05932686    -0.38510
N1319       N  0.49568592  0.32819008  0.13584117    -0.37960
N1320       N  0.57156531  0.45351792  0.04318094    -0.37960
C1321       C  0.88733382  0.42051013  0.53832010    -0.04630
C1322       C  0.91209632  0.40347368  0.54487147    -0.01740
C1323       C  0.90928793  0.37706260  0.55995446     0.03240
C1324       C  0.88185075  0.36686690  0.56821657    -0.04630
C1325       C  0.85708810  0.38252208  0.56007521    -0.01730
C1326       C  0.85964336  0.40921273  0.54570988     0.03240
C1327       C  0.94074754  0.41255697  0.53617513     0.37890
C1328       C  0.82858855  0.37065458  0.56555677     0.37880
C1329       C  0.83315937  0.42459231  0.53893870     0.36310
C1330       C  0.93489960  0.36070901  0.56761483     0.36310
N1331       N  0.81190551  0.43663961  0.53371955    -0.38510
N1332       N  0.95534650  0.34768019  0.57362279    -0.38510
N1333       N  0.80585809  0.36125861  0.56976772    -0.37960
N1334       N  0.96369016  0.41952881  0.52927445    -0.37960
C1335       C  0.89363276  0.58171785  0.46193417    -0.04630
C1336       C  0.89648771  0.58359337  0.43173260    -0.01740
C1337       C  0.89139321  0.61002082  0.41750931     0.03240
C1338       C  0.88319936  0.63478316  0.43342463    -0.04630
C1339       C  0.88146252  0.63308272  0.46385992    -0.01730
C1340       C  0.88614403  0.60651309  0.47795135     0.03240
C1341       C  0.90246049  0.55784250  0.41496115     0.37890
C1342       C  0.87324459  0.65815063  0.48077291     0.37880
C1343       C  0.88145453  0.60437367  0.50880575     0.36310
C1344       C  0.89453490  0.61156013  0.38641023     0.36310
N1345       N  0.87706807  0.60298530  0.53331955    -0.38510
N1346       N  0.89695545  0.61268005  0.36159702    -0.38510
N1347       N  0.86684523  0.67808134  0.49442403    -0.37960
N1348       N  0.90680103  0.53744719  0.40122074    -0.37960
C1349       C  0.88729465  0.46090806  0.42100183    -0.04630
C1350       C  0.90938907  0.46156894  0.39987832    -0.01740
C1351       C  0.90555237  0.44730496  0.37314226     0.03240
C1352       C  0.87949117  0.43262921  0.36700777    -0.04630
C1353       C  0.85749623  0.43202906  0.38806514    -0.01730
C1354       C  0.86182603  0.44494548  0.41518760     0.03240
C1355       C  0.93613943  0.47692711  0.40528951     0.37890
C1356       C  0.82964704  0.41915114  0.38165258     0.37880
C1357       C  0.84033207  0.44035681  0.43751054     0.36310
C1358       C  0.92881581  0.44726648  0.35224377     0.36310
N1359       N  0.82329611  0.43649424  0.45530932    -0.38510
N1360       N  0.94742880  0.44731671  0.33564557    -0.38510
N1361       N  0.80736628  0.40902959  0.37668160    -0.37960
N1362       N  0.95752296  0.48914993  0.40943829    -0.37960
C1363       C  0.89514044  0.53759224  0.58137914    -0.04630
C1364       C  0.87815294  0.52482961  0.60322319    -0.01740
C1365       C  0.87381943  0.53937739  0.62956545     0.03240
C1366       C  0.88636213  0.56674589  0.63408359    -0.04630
C1367       C  0.90508955  0.57845995  0.61323385    -0.01730
C1368       C  0.90985618  0.56368632  0.58707263     0.03240
C1369       C  0.86545700  0.49650997  0.59868933     0.37890
C1370       C  0.91887586  0.60609843  0.61848357     0.37880
C1371       C  0.92880870  0.57609496  0.56559417     0.36310
C1372       C  0.85595713  0.52648783  0.65175179     0.36310
N1373       N  0.94382370  0.58621041  0.54846317    -0.38510
N1374       N  0.84175711  0.51610563  0.66943241    -0.38510
N1375       N  0.92978564  0.62817380  0.62274964    -0.37960
N1376       N  0.85552184  0.47386249  0.59504556    -0.37960
C1377       C  0.40141823  0.90931163  0.46166070    -0.04630
C1378       C  0.37997264  0.89158624  0.47422301    -0.01740
C1379       C  0.35356806  0.88702818  0.45985932     0.03240
C1380       C  0.34818572  0.90068279  0.43324108    -0.04630
C1381       C  0.36863456  0.92000887  0.42171873    -0.01730
C1382       C  0.39538056  0.92406754  0.43569226     0.03240
C1383       C  0.38507118  0.87801030  0.50200593     0.37890
C1384       C  0.36220216  0.93543467  0.39525961     0.37880
C1385       C  0.41728647  0.94183242  0.42226598     0.36310
C1386       C  0.33224630  0.86766199  0.47208400     0.36310
N1387       N  0.43479379  0.95578077  0.41127780    -0.38510
N1388       N  0.31530777  0.85214919  0.48183942    -0.38510
N1389       N  0.35689994  0.94783687  0.37424886    -0.37960
N1390       N  0.38919645  0.86727527  0.52417150    -0.37960
C1391       C  0.56156549  0.90450028  0.53979803    -0.04630
C1392       C  0.56776206  0.87967843  0.55664930    -0.01740
C1393       C  0.59476733  0.87641002  0.57016106     0.03240
C1394       C  0.61541408  0.89884369  0.56917056    -0.04630
C1395       C  0.60921181  0.92396015  0.55285158    -0.01730
C1396       C  0.58272862  0.92653824  0.53779717     0.03240
C1397       C  0.54624894  0.85734807  0.56101601     0.37890
C1398       C  0.62980841  0.94752890  0.55179058     0.37880
C1399       C  0.57785319  0.95163611  0.51967477     0.36310
C1400       C  0.60157030  0.84902919  0.58388171     0.36310
N1401       N  0.57414155  0.97165636  0.50519049    -0.38510
N1402       N  0.60681379  0.82708920  0.59463638    -0.38510
N1403       N  0.64615801  0.96638912  0.55080158    -0.37960
N1404       N  0.52942144  0.83929552  0.56469703    -0.37960
C1405       C  0.52400104  0.90641580  0.41978969    -0.04630
C1406       C  0.53745563  0.87992026  0.41187495    -0.01740
C1407       C  0.55036860  0.87666008  0.38466083     0.03240
C1408       C  0.55288769  0.90046000  0.36586809    -0.04630
C1409       C  0.54048692  0.92720645  0.37383880    -0.01730
C1410       C  0.52575258  0.93011053  0.40042296     0.03240
C1411       C  0.53938208  0.85586333  0.43193016     0.37890
C1412       C  0.54327099  0.95200950  0.35492312     0.37880
C1413       C  0.51253343  0.95761964  0.40747278     0.36310
C1414       C  0.55981842  0.84812745  0.37558717     0.36310
N1415       N  0.50221349  0.97972393  0.41291104    -0.38510
N1416       N  0.56708066  0.82531105  0.36840753    -0.38510
N1417       N  0.54543366  0.97181946  0.33986766    -0.37960
N1418       N  0.54110354  0.83667443  0.44783244    -0.37960
C1419       C  0.44282309  0.90581410  0.57908731    -0.04630
C1420       C  0.44247367  0.87918211  0.59461244    -0.01740
C1421       C  0.42804907  0.87700423  0.62119926     0.03240
C1422       C  0.41305492  0.90083194  0.63248231    -0.04630
C1423       C  0.41403695  0.92757840  0.61808022    -0.01730
C1424       C  0.42873422  0.93017524  0.59150441     0.03240
C1425       C  0.45628937  0.85330256  0.58356122     0.37890
C1426       C  0.39912831  0.95230267  0.63027658     0.37880
C1427       C  0.42804165  0.95781219  0.57677139     0.36310
C1428       C  0.42919327  0.85015229  0.63742652     0.36310
N1429       N  0.42729266  0.97994794  0.56519839    -0.38510
N1430       N  0.43028411  0.82882254  0.65038620    -0.38510
N1431       N  0.38727411  0.97200413  0.64005193    -0.37960
N1432       N  0.46663343  0.83225329  0.57494500    -0.37960
C1433       C  0.07923903  0.57944896  0.53889290    -0.04630
C1434       C  0.10688927  0.59060153  0.54664610    -0.01740
C1435       C  0.10939065  0.61739430  0.56086599     0.03240
C1436       C  0.08458109  0.63312181  0.56864225    -0.04630
C1437       C  0.05721955  0.62312381  0.55986561    -0.01730
C1438       C  0.05455352  0.59686848  0.54452418     0.03240
C1439       C  0.13334696  0.57515358  0.54004742     0.37890
C1440       C  0.03155348  0.63951846  0.56720236     0.37880
C1441       C  0.02627025  0.58862791  0.53396451     0.36310
C1442       C  0.13784224  0.62935326  0.56648473     0.36310
N1443       N  0.00378618  0.58221375  0.52521051    -0.38510
N1444       N  0.16051873  0.63889057  0.57075974    -0.38510
N1445       N  0.01104997  0.65252940  0.57300363    -0.37960
N1446       N  0.15459290  0.56310469  0.53485976    -0.37960
C1447       C  0.06962793  0.42102200  0.45757759    -0.04630
C1448       C  0.08258317  0.42009649  0.43012774    -0.01740
C1449       C  0.08579425  0.39363073  0.41561615     0.03240
C1450       C  0.07838626  0.36737884  0.42947335    -0.04630
C1451       C  0.06462860  0.36848491  0.45680459    -0.01730
C1452       C  0.05933314  0.39538095  0.47025711     0.03240
C1453       C  0.09317465  0.44645721  0.41686700     0.37890
C1454       C  0.05749695  0.34217084  0.47216468     0.37880
C1455       C  0.04454664  0.39654958  0.49779551     0.36310
C1456       C  0.09628937  0.39383213  0.38613504     0.36310
N1457       N  0.03265561  0.39745319  0.51970454    -0.38510
N1458       N  0.10467900  0.39419659  0.36264293    -0.38510
N1459       N  0.05182994  0.32132175  0.48469889    -0.37960
N1460       N  0.10202537  0.46728083  0.40630968    -0.37960
C1461       C  0.07398098  0.54100151  0.42196181    -0.04630
C1462       C  0.08940616  0.56716745  0.42072257    -0.01740
C1463       C  0.09265732  0.58176414  0.39431650     0.03240
C1464       C  0.08239371  0.56919771  0.36828169    -0.04630
C1465       C  0.06622898  0.54313131  0.36985441    -0.01730
C1466       C  0.06119771  0.52975738  0.39677317     0.03240
C1467       C  0.10170927  0.57937821  0.44688657     0.37890
C1468       C  0.05592789  0.52887268  0.34395988     0.37880
C1469       C  0.04379002  0.50374470  0.39839025     0.36310
C1470       C  0.10586303  0.61018705  0.39455538     0.36310
N1471       N  0.02983227  0.48306510  0.39969247    -0.38510
N1472       N  0.11647294  0.63281253  0.39506352    -0.38510
N1473       N  0.04757602  0.51716023  0.32352254    -0.37960
N1474       N  0.11164042  0.58904301  0.46767517    -0.37960
C1475       C  0.07342180  0.45789427  0.57839793    -0.04630
C1476       C  0.06399076  0.47163574  0.60385191    -0.01740
C1477       C  0.06789201  0.45801068  0.63085980     0.03240
C1478       C  0.07993035  0.42987132  0.63233167    -0.04630
C1479       C  0.08714283  0.41541308  0.60634480    -0.01730
C1480       C  0.08500973  0.42980559  0.57973448     0.03240
C1481       C  0.05170854  0.50044760  0.60236067     0.37890
C1482       C  0.09615888  0.38537751  0.60658764     0.37880
C1483       C  0.09516692  0.41570873  0.55365959     0.36310
C1484       C  0.06096601  0.47378491  0.65697934     0.36310
N1485       N  0.10366019  0.40452945  0.53302118    -0.38510
N1486       N  0.05545193  0.48658596  0.67770362    -0.38510
N1487       N  0.10335615  0.36143614  0.60662242    -0.37960
N1488       N  0.04187357  0.52339612  0.60110203    -0.37960
loop_ 
_geom_bond_atom_site_label_1 
_geom_bond_atom_site_label_2 
_geom_bond_distance 
_geom_bond_site_symmetry_2 
_ccdc_geom_bond_type 
O1           Cu9   1.995       .  S
O1           C11   1.276       .  A
O2           Cu9   1.990       .  S
O2           C12   1.276       .  A
O3           Cu9   1.983       .  S
O3           C13   1.274       .  A
O4           Cu9   1.983       .  S
O4           C14   1.275       .  A
O5          Cu10   2.022       .  S
O5           C14   1.279       .  A
O6          Cu10   2.020       .  S
O6           C13   1.280       .  A
O7          Cu10   2.016       .  S
O7           C12   1.278       .  A
O8          Cu10   2.013       .  S
O8           C11   1.277       .  A
Cu9         Cu10   2.371       .  S
C11        C1475   1.477       .  S
C12        C1461   1.478       .  S
C13        C1433   1.509       .  S
C14        C1447   1.476       .  S
O15         Cu23   1.979       .  S
O15          C25   1.273       .  A
O16         Cu23   1.973       .  S
O16          C26   1.273       .  A
O17         Cu23   1.996       .  S
O17          C27   1.277       .  A
O18         Cu23   1.979       .  S
O18          C28   1.274       .  A
O19         Cu24   2.031       .  S
O19          C28   1.280       .  A
O20         Cu24   2.021       .  S
O20          C27   1.279       .  A
O21         Cu24   2.036       .  S
O21          C26   1.281       .  A
O22         Cu24   2.029       .  S
O22          C25   1.281       .  A
Cu23        Cu24   2.360       .  S
C25        C1419   1.507       .  S
C26        C1405   1.503       .  S
C27        C1391   1.500       .  S
C28        C1377   1.483       .  S
O29         Cu37   1.982       .  S
O29          C39   1.273       .  A
O30         Cu37   1.983       .  S
O30          C40   1.274       .  A
O31         Cu37   1.990       .  S
O31          C41   1.276       .  A
O32         Cu37   1.990       .  S
O32          C42   1.276       .  A
O33         Cu38   2.018       .  S
O33          C42   1.278       .  A
O34         Cu38   2.020       .  S
O34          C41   1.279       .  A
O35         Cu38   2.026       .  S
O35          C40   1.280       .  A
O36         Cu38   2.031       .  S
O36          C39   1.281       .  A
Cu37        Cu38   2.364       .  S
C39        C1335   1.477       .  S
C40        C1321   1.511       .  S
C41        C1363   1.481       .  S
C42        C1349   1.496       .  S
O43         Cu51   2.024       .  S
O43          C53   1.279       .  A
O44         Cu51   2.021       .  S
O44          C54   1.279       .  A
O45         Cu51   2.013       .  S
O45          C55   1.278       .  A
O46         Cu51   2.023       .  S
O46          C56   1.279       .  A
O47         Cu52   1.985       .  S
O47          C56   1.275       .  A
O48         Cu52   1.995       .  S
O48          C55   1.275       .  A
O49         Cu52   1.988       .  S
O49          C54   1.275       .  A
O50         Cu52   1.985       .  S
O50          C53   1.275       .  A
Cu51        Cu52   2.371       .  S
C53        C1307   1.478       .  S
C54        C1282   1.506       .  S
C55        C1293   1.476       .  S
C56        C1265   1.484       .  S
N57          N58   1.321       .  A
N57          C61   1.345       .  A
N57         Cu65   2.061       .  S
N58          C59   1.343       .  A
N58         Cu64   2.078       .  S
C59          C60   1.387       .  A
C59          H62   1.082       .  S
C60        C1254   1.490       .  S
C60          C61   1.384       .  A
C61          H63   1.082       .  S
Cu64         N67   2.078       .  S
Cu65         N75   2.061       .  S
Cu66         N68   2.085       .  S
Cu66         N74   2.085       .  S
N67          N68   1.323       .  A
N67          C71   1.347       .  A
N68          C69   1.346       .  A
C69          C70   1.386       .  A
C69          H72   1.082       .  S
C70         C810   1.480       .  S
C70          C71   1.384       .  A
C71          H73   1.082       .  S
N74          N75   1.323       .  A
N74          C78   1.346       .  A
N75          C76   1.344       .  A
C76          C77   1.378       .  A
C76          H79   1.082       .  S
C77        C1268   1.478       .  S
C77          C78   1.383       .  A
C78          H80   1.082       .  S
N81          N82   1.321       .  A
N81          C85   1.348       .  A
N81         Cu89   2.079       .  S
N82          C83   1.339       .  A
N82         Cu88   2.061       .  S
C83          C84   1.384       .  A
C83          H86   1.082       .  S
C84        C1478   1.494       .  S
C84          C85   1.390       .  A
C85          H87   1.082       .  S
Cu88         N91   2.060       .  S
Cu89         N99   2.080       .  S
Cu90         N92   2.077       .  S
Cu90         N98   2.078       .  S
N91          N92   1.319       .  A
N91          C95   1.345       .  A
N92          C93   1.345       .  A
C93          C94   1.388       .  A
C93          H96   1.082       .  S
C94         C781   1.478       .  S
C94          C95   1.383       .  A
C95          H97   1.082       .  S
N98          N99   1.322       .  A
N98         C102   1.342       .  A
N99         C100   1.347       .  A
C100        C101   1.389       .  A
C100        H103   1.081       .  S
C101       C1237   1.499       .  S
C101        C102   1.387       .  A
C102        H104   1.081       .  S
N105        N106   1.322       .  A
N105        C109   1.347       .  A
N105       Cu113   2.076       .  S
N106        C107   1.341       .  A
N106       Cu112   2.070       .  S
C107        C108   1.384       .  A
C107        H110   1.082       .  S
C108       C1352   1.491       .  S
C108        C109   1.387       .  A
C109        H111   1.082       .  S
Cu112       N115   2.069       .  S
Cu113       N123   2.075       .  S
Cu114       N116   2.070       .  S
Cu114       N122   2.071       .  S
N115        N116   1.320       .  A
N115        C119   1.344       .  A
N116        C117   1.347       .  A
C117        C118   1.385       .  A
C117        H120   1.082       .  S
C118        C749   1.477       .  S
C118        C119   1.385       .  A
C119        H121   1.082       .  S
N122        N123   1.320       .  A
N122        C126   1.340       .  A
N123        C124   1.346       .  A
C124        C125   1.391       .  A
C124        H127   1.080       .  S
C125       C1223   1.501       .  S
C125        C126   1.389       .  A
C126        H128   1.081       .  S
O129       Cu137   2.021   1_455  S
O129        C139   1.280       .  A
O130       Cu137   2.029   1_554  S
O130        C140   1.279       .  A
O131       Cu137   2.024   1_454  S
O131        C141   1.279       .  A
O132       Cu137   2.027       .  S
O132        C142   1.280       .  A
O133       Cu138   1.977   1_556  S
O133        C142   1.274       .  A
O134       Cu138   1.988   1_455  S
O134        C141   1.274       .  A
O135       Cu138   1.983       .  S
O135        C140   1.275       .  A
O136       Cu138   1.992   1_456  S
O136        C139   1.276       .  A
Cu137      Cu138   2.370   1_556  S
C139       C1240   1.495       .  S
C140       C1226   1.482       .  S
C141       C1251   1.475       .  S
C142       C1212   1.494       .  S
N143        N144   1.323       .  A
N143        C147   1.344       .  A
N143       Cu151   2.068       .  S
N144        C145   1.344       .  A
N144       Cu150   2.078       .  S
C145        C146   1.383       .  A
C145        H148   1.082       .  S
C146       C1296   1.483       .  S
C146        C147   1.381       .  A
C147        H149   1.082       .  S
Cu150       N153   2.077       .  S
Cu151       N161   2.067       .  S
Cu152       N154   2.074       .  S
Cu152       N160   2.074       .  S
N153        N154   1.322       .  A
N153        C157   1.346       .  A
N154        C155   1.345       .  A
C155        C156   1.383       .  A
C155        H158   1.082       .  S
C156        C756   1.476       .  S
C156        C157   1.385       .  A
C157        H159   1.082       .  S
N160        N161   1.321       .  A
N160        C164   1.343       .  A
N161        C162   1.345       .  A
C162        C163   1.386       .  A
C162        H165   1.081       .  S
C163       C1195   1.493       .  S
C163        C164   1.387       .  A
C164        H166   1.082       .  S
N167        N168   1.323       .  A
N167        C171   1.344       .  A
N167       Cu175   2.062       .  S
N168        C169   1.345       .  A
N168       Cu174   2.082       .  S
C169        C170   1.382       .  A
C169        H172   1.082       .  S
C170       C1366   1.477       .  S
C170        C171   1.378       .  A
C171        H173   1.082       .  S
Cu174       N177   2.082       .  S
Cu175       N185   2.062       .  S
Cu176       N178   2.085       .  S
Cu176       N184   2.084       .  S
N177        N178   1.322       .  A
N177        C181   1.348       .  A
N178        C179   1.346       .  A
C179        C180   1.387       .  A
C179        H182   1.082       .  S
C180        C801   1.485       .  S
C180        C181   1.387       .  A
C181        H183   1.082       .  S
N184        N185   1.320       .  A
N184        C188   1.343       .  A
N185        C186   1.345       .  A
C186        C187   1.387       .  A
C186        H189   1.081       .  S
C187       C1181   1.499       .  S
C187        C188   1.391       .  A
C188        H190   1.082       .  S
N191        N192   1.320       .  A
N191        C195   1.345       .  A
N191       Cu199   2.071       .  S
N192        C193   1.339       .  A
N192       Cu198   2.069       .  S
C193        C194   1.388       .  A
C193        H196   1.086       .  S
C194       C1464   1.500       .  S
C194        C195   1.391       .  A
C195        H197   1.083       .  S
Cu198       N201   2.070       .  S
Cu199       N209   2.073       .  S
Cu200       N202   2.074       .  S
Cu200       N208   2.075       .  S
N201        N202   1.321       .  A
N201        C205   1.346       .  A
N202        C203   1.345       .  A
C203        C204   1.385       .  A
C203        H206   1.082       .  S
C204        C765   1.475       .  S
C204        C205   1.383       .  A
C205        H207   1.082       .  S
N208        N209   1.323       .  A
N208        C212   1.343       .  A
N209        C210   1.346       .  A
C210        C211   1.382       .  A
C210        H213   1.082       .  S
C211       C1170   1.481       .  S
C211        C212   1.382       .  A
C212        H214   1.082       .  S
O215       Cu223   2.041       .  S
O215        C225   1.282       .  A
O216       Cu223   2.037   1_454  S
O216        C226   1.282       .  A
O217       Cu223   2.009   1_554  S
O217        C227   1.276       .  A
O218       Cu223   2.023   1_455  S
O218        C228   1.279       .  A
O219       Cu224   1.988   1_455  S
O219        C228   1.276       .  A
O220       Cu224   2.003   1_554  S
O220        C227   1.276       .  A
O221       Cu224   1.971   1_454  S
O221        C226   1.272       .  A
O222       Cu224   1.971       .  S
O222        C225   1.273       .  A
Cu223      Cu224   2.365       .  S
C225       C1184   1.495       .  S
C226       C1167   1.508       .  S
C227       C1198   1.475       .  S
C228       C1153   1.492       .  S
N229        N230   1.319       .  A
N229        C233   1.348       .  A
N229       Cu237   2.077       .  S
N230        C231   1.337       .  A
N230       Cu236   2.068       .  S
C231        C232   1.390       .  A
C231        H234   1.079       .  S
C232       C1139   1.507       .  S
C232        C233   1.395       .  A
C233        H235   1.079       .  S
Cu236       N239   2.069       .  S
Cu237       N247   2.079       .  S
Cu238       N240   2.071       .  S
Cu238       N246   2.072       .  S
N239        N240   1.319       .  A
N239        C243   1.347       .  A
N240        C241   1.345       .  A
C241        C242   1.386       .  A
C241        H244   1.082       .  S
C242        C794   1.479       .  S
C242        C243   1.385       .  A
C243        H245   1.082       .  S
N246        N247   1.323       .  A
N246        C250   1.340       .  A
N247        C248   1.347       .  A
C248        C249   1.386       .  A
C248        H251   1.082       .  S
C249       C1209   1.491       .  S
C249        C250   1.383       .  A
C250        H252   1.082       .  S
N253        N254   1.323       .  A
N253        C257   1.345       .  A
N253       Cu261   2.068       .  S
N254        C255   1.344       .  A
N254       Cu260   2.076       .  S
C255        C256   1.381       .  A
C255        H258   1.082       .  S
C256       C1156   1.479       .  S
C256        C257   1.380       .  A
C257        H259   1.082       .  S
Cu260       N263   2.076       .  S
Cu261       N271   2.068       .  S
Cu262       N264   2.082       .  S
Cu262       N270   2.082       .  S
N263        N264   1.322       .  A
N263        C267   1.346       .  A
N264        C265   1.347       .  A
C265        C266   1.387       .  A
C265        H268   1.082       .  S
C266        C774   1.483       .  S
C266        C267   1.386       .  A
C267        H269   1.082       .  S
N270        N271   1.322       .  A
N270        C274   1.343       .  A
N271        C272   1.346       .  A
C272        C273   1.385       .  A
C272        H275   1.082       .  S
C273       C1125   1.493       .  S
C273        C274   1.387       .  A
C274        H276   1.082       .  S
O277       Cu285   2.041       .  S
O277        C287   1.282       .  A
O278       Cu285   2.040       .  S
O278        C288   1.282       .  A
O279       Cu285   2.024       .  S
O279        C289   1.278       .  A
O280       Cu285   2.014       .  S
O280        C290   1.277       .  A
O281       Cu286   2.006       .  S
O281        C290   1.276       .  A
O282       Cu286   2.009       .  S
O282        C289   1.277       .  A
O283       Cu286   1.975       .  S
O283        C288   1.273       .  A
O284       Cu286   1.971       .  S
O284        C287   1.273       .  A
Cu285      Cu286   2.364       .  S
C287       C1142   1.495       .  S
C288       C1128   1.503       .  S
C289       C1100   1.484       .  S
C290       C1111   1.477       .  S
N291        N292   1.323       .  A
N291        C295   1.343       .  A
N291       Cu299   2.058       .  S
N292        C293   1.347       .  A
N292       Cu298   2.091       .  S
C293        C294   1.386       .  A
C293        H296   1.082       .  S
C294       C1310   1.482       .  S
C294        C295   1.378       .  A
C295        H297   1.081       .  S
Cu298       N301   2.091       .  S
Cu299       N309   2.057       .  S
Cu300       N302   2.082       .  S
Cu300       N308   2.081       .  S
N301        N302   1.324       .  A
N301        C305   1.348       .  A
N302        C303   1.346       .  A
C303        C304   1.384       .  A
C303        H306   1.082       .  S
C304        C745   1.482       .  S
C304        C305   1.387       .  A
C305        H307   1.082       .  S
N308        N309   1.322       .  A
N308        C312   1.346       .  A
N309        C310   1.344       .  A
C310        C311   1.378       .  A
C310        H313   1.082       .  S
C311       C1086   1.477       .  S
C311        C312   1.383       .  A
C312        H314   1.082       .  S
N315        N316   1.322       .  A
N315        C319   1.345       .  A
N315       Cu323   2.066       .  S
N316        C317   1.343       .  A
N316       Cu322   2.077       .  S
C317        C318   1.386       .  A
C317        H320   1.082       .  S
C318       C1114   1.489       .  S
C318        C319   1.384       .  A
C319        H321   1.082       .  S
Cu322       N325   2.077       .  S
Cu323       N333   2.066       .  S
Cu324       N326   2.081       .  S
Cu324       N332   2.082       .  S
N325        N326   1.322       .  A
N325        C329   1.346       .  A
N326        C327   1.346       .  A
C327        C328   1.386       .  A
C327        H330   1.082       .  S
C328        C803   1.480       .  S
C328        C329   1.385       .  A
C329        H331   1.082       .  S
N332        N333   1.323       .  A
N332        C336   1.345       .  A
N333        C334   1.345       .  A
C334        C335   1.379       .  A
C334        H337   1.082       .  S
C335       C1069   1.478       .  S
C335        C336   1.382       .  A
C336        H338   1.082       .  S
N339        N340   1.323       .  A
N339        C343   1.345       .  A
N339       Cu347   2.065       .  S
N340        C341   1.344       .  A
N340       Cu346   2.075       .  S
C341        C342   1.381       .  A
C341        H344   1.082       .  S
C342       C1058   1.478       .  S
C342        C343   1.379       .  A
C343        H345   1.082       .  S
Cu346       N349   2.075       .  S
Cu347       N357   2.065       .  S
Cu348       N350   2.080       .  S
Cu348       N356   2.080       .  S
N349        N350   1.322       .  A
N349        C353   1.345       .  A
N350        C351   1.347       .  A
C351        C352   1.386       .  A
C351        H354   1.082       .  S
C352        C754   1.481       .  S
C352        C353   1.385       .  A
C353        H355   1.082       .  S
N356        N357   1.322       .  A
N356        C360   1.342       .  A
N357        C358   1.346       .  A
C358        C359   1.384       .  A
C358        H361   1.082       .  S
C359       C1408   1.490       .  S
C359        C360   1.386       .  A
C360        H362   1.082       .  S
O363       Cu371   1.992   1_554  S
O363        C373   1.276       .  A
O364       Cu371   1.986   1_565  S
O364        C374   1.276       .  A
O365       Cu371   1.988       .  S
O365        C375   1.275       .  A
O366       Cu371   1.989   1_564  S
O366        C376   1.276       .  A
O367       Cu372   2.016   1_564  S
O367        C376   1.279       .  A
O368       Cu372   2.017       .  S
O368        C375   1.279       .  A
O369       Cu372   2.023   1_565  S
O369        C374   1.280       .  A
O370       Cu372   2.016   1_554  S
O370        C373   1.279       .  A
Cu371      Cu372   2.371       .  S
C373       C1083   1.485       .  S
C374       C1072   1.489       .  S
C375       C1041   1.479       .  S
C376       C1055   1.492       .  S
N377        N378   1.319       .  A
N377        C381   1.344       .  A
N377       Cu385   2.066       .  S
N378        C379   1.341       .  A
N378       Cu384   2.073       .  S
C379        C380   1.391       .  A
C379        H382   1.081       .  S
C380       C1027   1.501       .  S
C380        C381   1.390       .  A
C381        H383   1.080       .  S
Cu384       N387   2.074       .  S
Cu385       N395   2.068       .  S
Cu386       N388   2.075       .  S
Cu386       N394   2.076       .  S
N387        N388   1.321       .  A
N387        C391   1.347       .  A
N388        C389   1.345       .  A
C389        C390   1.384       .  A
C389        H392   1.082       .  S
C390        C763   1.475       .  S
C390        C391   1.384       .  A
C391        H393   1.082       .  S
N394        N395   1.323       .  A
N394        C398   1.344       .  A
N395        C396   1.345       .  A
C396        C397   1.380       .  A
C396        H399   1.082       .  S
C397       C1279   1.480       .  S
C397        C398   1.382       .  A
C398        H400   1.082       .  S
N401        N402   1.323       .  A
N401        C405   1.344       .  A
N401       Cu409   2.068       .  S
N402        C403   1.346       .  A
N402       Cu408   2.080       .  S
C403        C404   1.384       .  A
C403        H406   1.082       .  S
C404       C1097   1.483       .  S
C404        C405   1.381       .  A
C405        H407   1.082       .  S
Cu408       N411   2.080       .  S
Cu409       N419   2.068       .  S
Cu410       N412   2.071       .  S
Cu410       N418   2.071       .  S
N411        N412   1.322       .  A
N411        C415   1.345       .  A
N412        C413   1.346       .  A
C413        C414   1.384       .  A
C413        H416   1.082       .  S
C414        C783   1.478       .  S
C414        C415   1.386       .  A
C415        H417   1.082       .  S
N418        N419   1.322       .  A
N418        C422   1.343       .  A
N419        C420   1.346       .  A
C420        C421   1.383       .  A
C420        H423   1.081       .  S
C421       C1013   1.484       .  S
C421        C422   1.383       .  A
C422        H424   1.082       .  S
N425        N426   1.321       .  A
N425        C429   1.344       .  A
N425       Cu433   2.061       .  S
N426        C427   1.342       .  A
N426       Cu432   2.074       .  S
C427        C428   1.387       .  A
C427        H430   1.082       .  S
C428        C999   1.490       .  S
C428        C429   1.384       .  A
C429        H431   1.082       .  S
Cu432       N435   2.074       .  S
Cu433       N443   2.061       .  S
Cu434       N436   2.078       .  S
Cu434       N442   2.078       .  S
N435        N436   1.322       .  A
N435        C439   1.345       .  A
N436        C437   1.346       .  A
C437        C438   1.385       .  A
C437        H440   1.082       .  S
C438        C776   1.478       .  S
C438        C439   1.384       .  A
C439        H441   1.082       .  S
N442        N443   1.323       .  A
N442        C446   1.343       .  A
N443        C444   1.345       .  A
C444        C445   1.380       .  A
C444        H447   1.082       .  S
C445       C1422   1.480       .  S
C445        C446   1.383       .  A
C446        H448   1.082       .  S
O449       Cu457   2.024   1_566  S
O449        C459   1.279       .  A
O450       Cu457   2.017       .  S
O450        C460   1.279       .  A
O451       Cu457   2.020   1_565  S
O451        C461   1.278       .  A
O452       Cu457   2.014   1_556  S
O452        C462   1.278       .  A
O453       Cu458   1.996   1_545  S
O453        C462   1.276       .  A
O454       Cu458   1.986   1_554  S
O454        C461   1.276       .  A
O455       Cu458   1.985   1_544  S
O455        C460   1.274       .  A
O456       Cu458   1.983       .  S
O456        C459   1.273       .  A
Cu457      Cu458   2.365   1_544  S
C459       C1002   1.473       .  S
C460        C985   1.507       .  S
C461       C1030   1.480       .  S
C462       C1016   1.507       .  S
N463        N464   1.321       .  A
N463        C467   1.346       .  A
N463       Cu471   2.067       .  S
N464        C465   1.343       .  A
N464       Cu470   2.083       .  S
C465        C466   1.389       .  A
C465        H468   1.082       .  S
C466       C1394   1.496       .  S
C466        C467   1.386       .  A
C467        H469   1.082       .  S
Cu470       N473   2.083       .  S
Cu471       N481   2.067       .  S
Cu472       N474   2.081       .  S
Cu472       N480   2.082       .  S
N473        N474   1.322       .  A
N473        C477   1.346       .  A
N474        C475   1.347       .  A
C475        C476   1.387       .  A
C475        H478   1.082       .  S
C476        C799   1.484       .  S
C476        C477   1.387       .  A
C477        H479   1.082       .  S
N480        N481   1.323       .  A
N480        C484   1.345       .  A
N481        C482   1.345       .  A
C482        C483   1.379       .  A
C482        H485   1.082       .  S
C483        C971   1.480       .  S
C483        C484   1.383       .  A
C484        H486   1.082       .  S
N487        N488   1.321       .  A
N487        C491   1.345       .  A
N487       Cu495   2.064       .  S
N488        C489   1.343       .  A
N488       Cu494   2.075       .  S
C489        C490   1.386       .  A
C489        H492   1.082       .  S
C490       C1324   1.489       .  S
C490        C491   1.384       .  A
C491        H493   1.082       .  S
Cu494       N497   2.075       .  S
Cu495       N505   2.065       .  S
Cu496       N498   2.079       .  S
Cu496       N504   2.079       .  S
N497        N498   1.322       .  A
N497        C501   1.344       .  A
N498        C499   1.347       .  A
C499        C500   1.386       .  A
C499        H502   1.082       .  S
C500        C792   1.480       .  S
C500        C501   1.385       .  A
C501        H503   1.082       .  S
N504        N505   1.323       .  A
N504        C508   1.345       .  A
N505        C506   1.344       .  A
C506        C507   1.380       .  A
C506        H509   1.082       .  S
C507        C957   1.480       .  S
C507        C508   1.383       .  A
C508        H510   1.082       .  S
N511        N512   1.321       .  A
N511        C515   1.345       .  A
N511       Cu519   2.062       .  S
N512        C513   1.343       .  A
N512       Cu518   2.074       .  S
C513        C514   1.385       .  A
C513        H516   1.082       .  S
C514       C1436   1.486       .  S
C514        C515   1.383       .  A
C515        H517   1.082       .  S
Cu518       N521   2.074       .  S
Cu519       N529   2.062       .  S
Cu520       N522   2.083       .  S
Cu520       N528   2.083       .  S
N521        N522   1.322       .  A
N521        C525   1.346       .  A
N522        C523   1.346       .  A
C523        C524   1.386       .  A
C523        H526   1.082       .  S
C524        C772   1.480       .  S
C524        C525   1.384       .  A
C525        H527   1.082       .  S
N528        N529   1.323       .  A
N528        C532   1.346       .  A
N529        C530   1.344       .  A
C530        C531   1.378       .  A
C530        H533   1.081       .  S
C531        C946   1.477       .  S
C531        C532   1.382       .  A
C532        H534   1.082       .  S
O535       Cu543   1.983       .  S
O535        C545   1.275       .  A
O536       Cu543   1.979   1_445  S
O536        C546   1.273       .  A
O537       Cu543   2.000   1_545  S
O537        C547   1.276       .  A
O538       Cu543   1.989       .  S
O538        C548   1.276   1_655  A
O539       Cu544   2.019   1_465  S
O539        C548   1.279       .  A
O540       Cu544   2.008       .  S
O540        C547   1.277       .  A
O541       Cu544   2.035   1_455  S
O541        C546   1.281       .  A
O542       Cu544   2.028   1_565  S
O542        C545   1.281       .  A
Cu543      Cu544   2.367   1_565  S
C545        C974   1.491       .  S
C546        C929   1.509       .  S
C547        C960   1.475       .  S
C548        C943   1.487       .  S
N549        N550   1.322       .  A
N549        C553   1.343       .  A
N549       Cu557   2.056       .  S
N550        C551   1.346       .  A
N550       Cu556   2.084       .  S
C551        C552   1.383       .  A
C551        H554   1.081       .  S
C552       C1044   1.478       .  S
C552        C553   1.378       .  A
C553        H555   1.082       .  S
Cu556       N559   2.084       .  S
Cu557       N567   2.056       .  S
Cu558       N560   2.086       .  S
Cu558       N566   2.085       .  S
N559        N560   1.324       .  A
N559        C563   1.347       .  A
N560        C561   1.347       .  A
C561        C562   1.385       .  A
C561        H564   1.082       .  S
C562        C790   1.482       .  S
C562        C563   1.385       .  A
C563        H565   1.082       .  S
N566        N567   1.322       .  A
N566        C570   1.346       .  A
N567        C568   1.343       .  A
C568        C569   1.377       .  A
C568        H571   1.082       .  S
C569        C915   1.477       .  S
C569        C570   1.384       .  A
C570        H572   1.082       .  S
N573        N574   1.322       .  A
N573        C577   1.345       .  A
N573       Cu581   2.067       .  S
N574        C575   1.342       .  A
N574       Cu580   2.071       .  S
C575        C576   1.383       .  A
C575        H578   1.082       .  S
C576        C901   1.486       .  S
C576        C577   1.383       .  A
C577        H579   1.082       .  S
Cu580       N583   2.071       .  S
Cu581       N591   2.067       .  S
Cu582       N584   2.074       .  S
Cu582       N590   2.074       .  S
N583        N584   1.321       .  A
N583        C587   1.344       .  A
N584        C585   1.346       .  A
C585        C586   1.386       .  A
C585        H588   1.082       .  S
C586        C812   1.479       .  S
C586        C587   1.385       .  A
C587        H589   1.082       .  S
N590        N591   1.322       .  A
N590        C594   1.342       .  A
N591        C592   1.345       .  A
C592        C593   1.384       .  A
C592        H595   1.082       .  S
C593        C988   1.488       .  S
C593        C594   1.385       .  A
C594        H596   1.082       .  S
N597        N598   1.323       .  A
N597        C601   1.345       .  A
N597       Cu605   2.066       .  S
N598        C599   1.345       .  A
N598       Cu604   2.080       .  S
C599        C600   1.382       .  A
C599        H602   1.082       .  S
C600        C887   1.479       .  S
C600        C601   1.380       .  A
C601        H603   1.082       .  S
Cu604       N607   2.080       .  S
Cu605       N615   2.065       .  S
Cu606       N608   2.084       .  S
Cu606       N614   2.084       .  S
N607        N608   1.322       .  A
N607        C611   1.346       .  A
N608        C609   1.348       .  A
C609        C610   1.387       .  A
C609        H612   1.082       .  S
C610        C785   1.484       .  S
C610        C611   1.386       .  A
C611        H613   1.082       .  S
N614        N615   1.322       .  A
N614        C618   1.343       .  A
N615        C616   1.346       .  A
C616        C617   1.385       .  A
C616        H619   1.082       .  S
C617        C932   1.493       .  S
C617        C618   1.388       .  A
C618        H620   1.082       .  S
O621       Cu629   2.022       .  S
O621        C631   1.279       .  A
O622       Cu629   2.024       .  S
O622        C632   1.280       .  A
O623       Cu629   2.017       .  S
O623        C633   1.278       .  A
O624       Cu629   2.012       .  S
O624        C634   1.277       .  A
O625       Cu630   1.997       .  S
O625        C634   1.276       .  A
O626       Cu630   2.001       .  S
O626        C633   1.276       .  A
O627       Cu630   1.982       .  S
O627        C632   1.273       .  A
O628       Cu630   1.985       .  S
O628        C631   1.276       .  A
Cu629      Cu630   2.369       .  S
C631        C918   1.487       .  S
C632        C904   1.511       .  S
C633        C873   1.477       .  S
C634        C890   1.478       .  S
N635        N636   1.322       .  A
N635        C639   1.344       .  A
N635       Cu643   2.059       .  S
N636        C637   1.346       .  A
N636       Cu642   2.085       .  S
C637        C638   1.385       .  A
C637        H640   1.082       .  S
C638        C859   1.481       .  S
C638        C639   1.379       .  A
C639        H641   1.082       .  S
Cu642       N645   2.086       .  S
Cu643       N653   2.059       .  S
Cu644       N646   2.084       .  S
Cu644       N652   2.083       .  S
N645        N646   1.323       .  A
N645        C649   1.347       .  A
N646        C647   1.347       .  A
C647        C648   1.385       .  A
C647        H650   1.082       .  S
C648        C767   1.481       .  S
C648        C649   1.386       .  A
C649        H651   1.082       .  S
N652        N653   1.323       .  A
N652        C656   1.346       .  A
N653        C654   1.344       .  A
C654        C655   1.378       .  A
C654        H657   1.082       .  S
C655       C1380   1.477       .  S
C655        C656   1.383       .  A
C656        H658   1.082       .  S
N659        N660   1.318       .  A
N659        C663   1.343       .  A
N659       Cu667   2.060       .  S
N660        C661   1.342       .  A
N660       Cu666   2.076       .  S
C661        C662   1.393       .  A
C661        H664   1.081       .  S
C662        C845   1.502       .  S
C662        C663   1.389       .  A
C663        H665   1.080       .  S
Cu666       N669   2.078       .  S
Cu667       N677   2.061       .  S
Cu668       N670   2.077       .  S
Cu668       N676   2.077       .  S
N669        N670   1.323       .  A
N669        C673   1.346       .  A
N670        C671   1.346       .  A
C671        C672   1.383       .  A
C671        H674   1.082       .  S
C672        C758   1.475       .  S
C672        C673   1.383       .  A
C673        H675   1.082       .  S
N676        N677   1.321       .  A
N676        C680   1.344       .  A
N677        C678   1.343       .  A
C678        C679   1.383       .  A
C678        H681   1.081       .  S
C679       C1338   1.488       .  S
C679        C680   1.386       .  A
C680        H682   1.082       .  S
N683        N684   1.322       .  A
N683        C687   1.347       .  A
N683       Cu691   2.076       .  S
N684        C685   1.342       .  A
N684       Cu690   2.069       .  S
C685        C686   1.384       .  A
C685        H688   1.082       .  S
C686        C876   1.491       .  S
C686        C687   1.387       .  A
C687        H689   1.082       .  S
Cu690       N693   2.068       .  S
Cu691       N701   2.076       .  S
Cu692       N694   2.080       .  S
Cu692       N700   2.080       .  S
N693        N694   1.321       .  A
N693        C697   1.346       .  A
N694        C695   1.345       .  A
C695        C696   1.387       .  A
C695        H698   1.082       .  S
C696        C747   1.481       .  S
C696        C697   1.385       .  A
C697        H699   1.082       .  S
N700        N701   1.321       .  A
N700        C704   1.342       .  A
N701        C702   1.346       .  A
C702        C703   1.389       .  A
C702        H705   1.081       .  S
C703        C831   1.499       .  S
C703        C704   1.389       .  A
C704        H706   1.082       .  S
N707        N708   1.321       .  A
N707        C711   1.345       .  A
N707       Cu715   2.067       .  S
N708        C709   1.340       .  A
N708       Cu714   2.071       .  S
C709        C710   1.387       .  A
C709        H712   1.082       .  S
C710       C1450   1.495       .  S
C710        C711   1.388       .  A
C711        H713   1.081       .  S
Cu714       N717   2.071       .  S
Cu715       N725   2.068       .  S
Cu716       N718   2.079       .  S
Cu716       N724   2.079       .  S
N717        N718   1.321       .  A
N717        C721   1.346       .  A
N718        C719   1.346       .  A
C719        C720   1.387       .  A
C719        H722   1.082       .  S
C720        C808   1.480       .  S
C720        C721   1.385       .  A
C721        H723   1.082       .  S
N724        N725   1.323       .  A
N724        C728   1.342       .  A
N725        C726   1.346       .  A
C726        C727   1.384       .  A
C726        H729   1.082       .  S
C727        C817   1.491       .  S
C727        C728   1.386       .  A
C728        H730   1.082       .  S
O731       Cu739   1.982       .  S
O731        C741   1.275       .  A
O732       Cu739   1.980   1_445  S
O732        C742   1.274       .  A
O733       Cu739   1.999   1_455  S
O733        C743   1.276       .  A
O734       Cu739   1.983   1_545  S
O734        C744   1.275       .  A
O735       Cu740   2.030   1_545  S
O735        C744   1.280       .  A
O736       Cu740   2.035   1_455  S
O736        C743   1.280       .  A
O737       Cu740   2.029   1_445  S
O737        C742   1.281       .  A
O738       Cu740   2.033       .  S
O738        C741   1.280       .  A
Cu739      Cu740   2.366       .  S
C741        C848   1.483       .  S
C742        C820   1.505       .  S
C743        C862   1.485       .  S
C744        C834   1.493       .  S
C745        C746   1.408       .  A
C745        C750   1.407       .  A
C746        C747   1.407       .  A
C746        H751   1.083       .  S
C747        C748   1.402       .  A
C748        C749   1.401       .  A
C748        H752   1.083       .  S
C749        C750   1.405       .  A
C750        H753   1.084       .  S
C754        C755   1.406       .  A
C754        C759   1.406       .  A
C755        C756   1.404       .  A
C755        H760   1.083       .  S
C756        C757   1.403       .  A
C757        C758   1.402       .  A
C757        H761   1.084       .  S
C758        C759   1.405       .  A
C759        H762   1.084       .  S
C763        C764   1.400       .  A
C763        C768   1.405       .  A
C764        C765   1.400       .  A
C764        H769   1.084       .  S
C765        C766   1.405       .  A
C766        C767   1.407       .  A
C766        H770   1.084       .  S
C767        C768   1.408       .  A
C768        H771   1.084       .  S
C772        C773   1.406       .  A
C772        C777   1.404       .  A
C773        C774   1.407       .  A
C773        H778   1.083       .  S
C774        C775   1.406       .  A
C775        C776   1.405       .  A
C775        H779   1.083       .  S
C776        C777   1.403       .  A
C777        H780   1.084       .  S
C781        C782   1.401       .  A
C781        C786   1.407       .  A
C782        C783   1.402       .  A
C782        H787   1.083       .  S
C783        C784   1.405       .  A
C784        C785   1.407       .  A
C784        H788   1.083       .  S
C785        C786   1.407       .  A
C786        H789   1.083       .  S
C790        C791   1.407       .  A
C790        C795   1.407       .  A
C791        C792   1.405       .  A
C791        H796   1.083       .  S
C792        C793   1.403       .  A
C793        C794   1.402       .  A
C793        H797   1.083       .  S
C794        C795   1.406       .  A
C795        H798   1.084       .  S
C799        C800   1.408       .  A
C799        C804   1.405       .  A
C800        C801   1.408       .  A
C800        H805   1.083       .  S
C801        C802   1.406       .  A
C802        C803   1.404       .  A
C802        H806   1.083       .  S
C803        C804   1.404       .  A
C804        H807   1.083       .  S
C808        C809   1.407       .  A
C808        C813   1.403       .  A
C809        C810   1.407       .  A
C809        H814   1.083       .  S
C810        C811   1.404       .  A
C811        C812   1.404       .  A
C811        H815   1.084       .  S
C812        C813   1.404       .  A
C813        H816   1.083       .  S
C817        C818   1.413       .  A
C817        C822   1.411       .  A
C818        C819   1.415       .  A
C818        C823   1.452       .  S
C819        C820   1.422       .  A
C819        C826   1.452       .  S
C820        C821   1.425       .  A
C821        C822   1.408       .  A
C821        C824   1.454       .  S
C822        C825   1.454       .  S
C823        N830   1.157       .  T
C824        N829   1.158       .  T
C825        N827   1.157       .  T
C826        N828   1.158   1_455  T
C831        C832   1.417       .  A
C831        C836   1.420       .  A
C832        C833   1.407       .  A
C832        C837   1.452       .  S
C833        C834   1.416       .  A
C833        C840   1.454       .  S
C834        C835   1.414       .  A
C835        C836   1.416       .  A
C835        C838   1.452       .  S
C836        C839   1.451       .  S
C837        N844   1.158       .  T
C838        N843   1.158       .  T
C839        N841   1.158       .  T
C840        N842   1.158       .  T
C845        C846   1.420       .  A
C845        C850   1.424       .  A
C846        C847   1.408       .  A
C846        C851   1.451       .  S
C847        C848   1.410       .  A
C847        C854   1.454       .  S
C848        C849   1.405       .  A
C849        C850   1.412       .  A
C849        C852   1.447       .  S
C850        C853   1.450       .  S
C851        N858   1.158       .  T
C852        N857   1.157       .  T
C853        N855   1.158       .  T
C854        N856   1.157       .  T
C859        C860   1.411       .  A
C859        C864   1.410       .  A
C860        C861   1.411       .  A
C860        C865   1.451       .  S
C861        C862   1.413       .  A
C861        C868   1.449   1_565  S
C862        C863   1.410       .  A
C863        C864   1.411       .  A
C863        C866   1.443       .  S
C864        C867   1.452       .  S
C865        N872   1.157       .  T
C866        N871   1.154       .  T
C867        N869   1.157       .  T
C868        N870   1.156       .  T
C873        C874   1.409       .  A
C873        C878   1.409       .  A
C874        C875   1.413       .  A
C874        C879   1.450       .  S
C875        C876   1.417       .  A
C875        C882   1.451       .  S
C876        C877   1.416       .  A
C877        C878   1.408       .  A
C877        C880   1.452       .  S
C878        C881   1.452       .  S
C879        N886   1.157       .  T
C880        N885   1.157       .  T
C881        N883   1.157       .  T
C882        N884   1.157       .  T
C887        C888   1.411       .  A
C887        C892   1.411       .  A
C888        C889   1.410       .  A
C888        C893   1.451       .  S
C889        C890   1.412       .  A
C889        C896   1.451       .  S
C890        C891   1.412       .  A
C891        C892   1.409       .  A
C891        C894   1.452       .  S
C892        C895   1.451       .  S
C893        N900   1.157       .  T
C894        N899   1.158       .  T
C895        N897   1.157       .  T
C896        N898   1.157       .  T
C901        C902   1.409       .  A
C901        C906   1.408       .  A
C902        C903   1.414       .  A
C902        C907   1.452       .  S
C903        C904   1.425       .  A
C903        C910   1.450       .  S
C904        C905   1.429       .  A
C905        C906   1.410       .  A
C905        C908   1.453       .  S
C906        C909   1.454       .  S
C907        N914   1.157       .  T
C908        N913   1.158       .  T
C909        N911   1.157       .  T
C910        N912   1.157       .  T
C915        C916   1.410       .  A
C915        C920   1.408       .  A
C916        C917   1.412       .  A
C916        C921   1.450       .  S
C917        C918   1.415       .  A
C917        C924   1.450       .  S
C918        C919   1.417       .  A
C919        C920   1.407       .  A
C919        C922   1.453       .  S
C920        C923   1.451       .  S
C921        N928   1.157       .  T
C922        N927   1.158       .  T
C923        N925   1.157       .  T
C924        N926   1.158       .  T
C929        C930   1.422       .  A
C929        C934   1.427       .  A
C930        C931   1.417       .  A
C930        C935   1.452       .  S
C931        C932   1.414       .  A
C931        C938   1.452       .  S
C932        C933   1.411       .  A
C933        C934   1.409       .  A
C933        C936   1.454       .  S
C934        C937   1.454       .  S
C935        N942   1.158       .  T
C936        N941   1.157       .  T
C937        N939   1.158       .  T
C938        N940   1.157       .  T
C943        C944   1.416       .  A
C943        C948   1.417       .  A
C944        C945   1.411       .  A
C944        C949   1.451       .  S
C945        C946   1.409       .  A
C945        C952   1.451       .  S
C946        C947   1.408       .  A
C947        C948   1.408       .  A
C947        C950   1.451       .  S
C948        C951   1.452   1_455  S
C949        N956   1.157       .  T
C950        N955   1.157       .  T
C951        N953   1.158       .  T
C952        N954   1.157       .  T
C957        C958   1.412       .  A
C957        C962   1.413       .  A
C958        C959   1.410       .  A
C958        C963   1.451       .  S
C959        C960   1.411       .  A
C959        C966   1.451       .  S
C960        C961   1.410       .  A
C961        C962   1.409       .  A
C961        C964   1.451       .  S
C962        C965   1.451       .  S
C963        N970   1.157       .  T
C964        N969   1.157   1_655  T
C965        N967   1.157       .  T
C966        N968   1.157       .  T
C971        C972   1.410       .  A
C971        C976   1.408       .  A
C972        C973   1.413       .  A
C972        C977   1.451       .  S
C973        C974   1.417       .  A
C973        C980   1.450       .  S
C974        C975   1.419       .  A
C975        C976   1.408       .  A
C975        C978   1.453       .  S
C976        C979   1.452       .  S
C977        N984   1.157       .  T
C978        N983   1.158   1_565  T
C979        N981   1.157       .  T
C980        N982   1.157       .  T
C985        C986   1.424       .  A
C985        C990   1.427       .  A
C986        C987   1.413       .  A
C986        C991   1.451       .  S
C987        C988   1.411       .  A
C987        C994   1.452       .  S
C988        C989   1.410       .  A
C989        C990   1.409       .  A
C989        C992   1.454       .  S
C990        C993   1.453       .  S
C991        N998   1.157       .  T
C992        N997   1.157       .  T
C993        N995   1.158       .  T
C994        N996   1.157       .  T
C999       C1000   1.415       .  A
C999       C1004   1.419       .  A
C1000      C1001   1.406       .  A
C1000      C1005   1.452       .  S
C1001      C1002   1.408       .  A
C1001      C1008   1.450       .  S
C1002      C1003   1.409       .  A
C1003      C1004   1.412       .  A
C1003      C1006   1.452   1_565  S
C1004      C1007   1.450       .  S
C1005      N1012   1.157       .  T
C1006      N1011   1.157       .  T
C1007      N1009   1.158       .  T
C1008      N1010   1.156       .  T
C1013      C1014   1.408       .  A
C1013      C1018   1.409       .  A
C1014      C1015   1.410       .  A
C1014      C1019   1.453       .  S
C1015      C1016   1.426       .  A
C1015      C1022   1.453       .  S
C1016      C1017   1.425       .  A
C1017      C1018   1.413       .  A
C1017      C1020   1.451       .  S
C1018      C1021   1.452       .  S
C1019      N1026   1.157       .  T
C1020      N1025   1.157       .  T
C1021      N1023   1.157       .  T
C1022      N1024   1.158       .  T
C1027      C1028   1.420       .  A
C1027      C1032   1.424       .  A
C1028      C1029   1.407       .  A
C1028      C1033   1.452       .  S
C1029      C1030   1.409       .  A
C1029      C1036   1.454       .  S
C1030      C1031   1.408       .  A
C1031      C1032   1.414       .  A
C1031      C1034   1.451       .  S
C1032      C1035   1.450       .  S
C1033      N1040   1.158       .  T
C1034      N1039   1.158   1_554  T
C1035      N1037   1.158       .  T
C1036      N1038   1.157       .  T
C1041      C1042   1.413       .  A
C1041      C1046   1.414       .  A
C1042      C1043   1.410       .  A
C1042      C1047   1.451       .  S
C1043      C1044   1.410       .  A
C1043      C1050   1.451       .  S
C1044      C1045   1.410       .  A
C1045      C1046   1.409       .  A
C1045      C1048   1.451       .  S
C1046      C1049   1.452   1_545  S
C1047      N1054   1.157       .  T
C1048      N1053   1.157       .  T
C1049      N1051   1.157       .  T
C1050      N1052   1.157       .  T
C1055      C1056   1.419       .  A
C1055      C1060   1.419       .  A
C1056      C1057   1.408       .  A
C1056      C1061   1.453       .  S
C1057      C1058   1.408       .  A
C1057      C1064   1.452       .  S
C1058      C1059   1.409       .  A
C1059      C1060   1.412       .  A
C1059      C1062   1.451       .  S
C1060      C1063   1.451       .  S
C1061      N1068   1.158   1_565  T
C1062      N1067   1.157       .  T
C1063      N1065   1.158       .  T
C1064      N1066   1.157       .  T
C1069      C1070   1.410       .  A
C1069      C1074   1.408       .  A
C1070      C1071   1.412       .  A
C1070      C1075   1.451       .  S
C1071      C1072   1.417       .  A
C1071      C1078   1.451       .  S
C1072      C1073   1.418       .  A
C1073      C1074   1.408       .  A
C1073      C1076   1.452       .  S
C1074      C1077   1.452       .  S
C1075      N1082   1.157       .  T
C1076      N1081   1.157   1_556  T
C1077      N1079   1.157       .  T
C1078      N1080   1.157       .  T
C1083      C1084   1.416       .  A
C1083      C1088   1.415       .  A
C1084      C1085   1.409       .  A
C1084      C1089   1.452   1_554  S
C1085      C1086   1.409       .  A
C1085      C1092   1.451       .  S
C1086      C1087   1.409       .  A
C1087      C1088   1.411       .  A
C1087      C1090   1.451       .  S
C1088      C1091   1.450       .  S
C1089      N1096   1.157       .  T
C1090      N1095   1.157       .  T
C1091      N1093   1.157       .  T
C1092      N1094   1.157       .  T
C1097      C1098   1.412       .  A
C1097      C1102   1.411       .  A
C1098      C1099   1.413       .  A
C1098      C1103   1.450       .  S
C1099      C1100   1.412       .  A
C1099      C1106   1.449       .  S
C1100      C1101   1.411       .  A
C1101      C1102   1.408       .  A
C1101      C1104   1.446       .  S
C1102      C1105   1.452       .  S
C1103      N1110   1.157       .  T
C1104      N1109   1.156       .  T
C1105      N1107   1.157       .  T
C1106      N1108   1.157       .  T
C1111      C1112   1.410       .  A
C1111      C1116   1.409       .  A
C1112      C1113   1.412       .  A
C1112      C1117   1.451       .  S
C1113      C1114   1.416       .  A
C1113      C1120   1.451       .  S
C1114      C1115   1.414       .  A
C1115      C1116   1.408       .  A
C1115      C1118   1.452       .  S
C1116      C1119   1.449       .  S
C1117      N1124   1.157       .  T
C1118      N1123   1.157       .  T
C1119      N1121   1.156       .  T
C1120      N1122   1.157       .  T
C1125      C1126   1.415       .  A
C1125      C1130   1.411       .  A
C1126      C1127   1.417       .  A
C1126      C1131   1.451       .  S
C1127      C1128   1.419       .  A
C1127      C1134   1.451       .  S
C1128      C1129   1.424       .  A
C1129      C1130   1.407       .  A
C1129      C1132   1.454       .  S
C1130      C1133   1.454       .  S
C1131      N1138   1.157       .  T
C1132      N1137   1.158       .  T
C1133      N1135   1.157       .  T
C1134      N1136   1.158       .  T
C1139      C1140   1.423       .  A
C1139      C1144   1.418       .  A
C1140      C1141   1.419       .  A
C1140      C1145   1.449       .  S
C1141      C1142   1.415       .  A
C1141      C1148   1.451       .  S
C1142      C1143   1.417       .  A
C1143      C1144   1.403       .  A
C1143      C1146   1.454       .  S
C1144      C1147   1.452       .  S
C1145      N1152   1.158       .  T
C1146      N1151   1.158       .  T
C1147      N1149   1.158       .  T
C1148      N1150   1.158       .  T
C1153      C1154   1.419       .  A
C1153      C1158   1.418       .  A
C1154      C1155   1.408       .  A
C1154      C1159   1.453       .  S
C1155      C1156   1.408       .  A
C1155      C1162   1.452       .  S
C1156      C1157   1.409       .  A
C1157      C1158   1.413       .  A
C1157      C1160   1.451       .  S
C1158      C1161   1.450       .  S
C1159      N1166   1.158   1_556  T
C1160      N1165   1.157       .  T
C1161      N1163   1.157       .  T
C1162      N1164   1.157       .  T
C1167      C1168   1.424       .  A
C1167      C1172   1.429       .  A
C1168      C1169   1.416       .  A
C1168      C1173   1.451       .  S
C1169      C1170   1.409       .  A
C1169      C1176   1.451       .  S
C1170      C1171   1.405       .  A
C1171      C1172   1.407       .  A
C1171      C1174   1.454       .  S
C1172      C1175   1.454       .  S
C1173      N1180   1.158       .  T
C1174      N1179   1.157       .  T
C1175      N1177   1.158   1_455  T
C1176      N1178   1.157       .  T
C1181      C1182   1.420       .  A
C1181      C1186   1.415       .  A
C1182      C1183   1.416       .  A
C1182      C1187   1.451       .  S
C1183      C1184   1.414       .  A
C1183      C1190   1.449       .  S
C1184      C1185   1.418       .  A
C1185      C1186   1.406       .  A
C1185      C1188   1.454       .  S
C1186      C1189   1.452       .  S
C1187      N1194   1.158       .  T
C1188      N1193   1.157       .  T
C1189      N1191   1.158       .  T
C1190      N1192   1.157       .  T
C1195      C1196   1.417       .  A
C1195      C1200   1.419       .  A
C1196      C1197   1.408       .  A
C1196      C1201   1.451       .  S
C1197      C1198   1.408       .  A
C1197      C1204   1.451       .  S
C1198      C1199   1.408       .  A
C1199      C1200   1.413       .  A
C1199      C1202   1.452   1_554  S
C1200      C1203   1.450       .  S
C1201      N1208   1.157       .  T
C1202      N1207   1.157       .  T
C1203      N1205   1.157       .  T
C1204      N1206   1.157       .  T
C1209      C1210   1.415       .  A
C1209      C1214   1.413       .  A
C1210      C1211   1.416       .  A
C1210      C1215   1.451       .  S
C1211      C1212   1.418       .  A
C1211      C1218   1.451       .  S
C1212      C1213   1.419       .  A
C1213      C1214   1.405       .  A
C1213      C1216   1.454       .  S
C1214      C1217   1.453       .  S
C1215      N1222   1.157       .  T
C1216      N1221   1.157       .  T
C1217      N1219   1.157       .  T
C1218      N1220   1.158       .  T
C1223      C1224   1.420       .  A
C1223      C1228   1.423       .  A
C1224      C1225   1.407       .  A
C1224      C1229   1.452       .  S
C1225      C1226   1.410       .  A
C1225      C1232   1.454       .  S
C1226      C1227   1.408       .  A
C1227      C1228   1.415       .  A
C1227      C1230   1.450       .  S
C1228      C1231   1.450       .  S
C1229      N1236   1.158       .  T
C1230      N1235   1.157       .  T
C1231      N1233   1.158       .  T
C1232      N1234   1.157       .  T
C1237      C1238   1.418       .  A
C1237      C1242   1.417       .  A
C1238      C1239   1.415       .  A
C1238      C1243   1.451       .  S
C1239      C1240   1.416       .  A
C1239      C1246   1.451   1_455  S
C1240      C1241   1.416       .  A
C1241      C1242   1.408       .  A
C1241      C1244   1.453       .  S
C1242      C1245   1.452       .  S
C1243      N1250   1.158       .  T
C1244      N1249   1.157       .  T
C1245      N1247   1.157       .  T
C1246      N1248   1.157       .  T
C1251      C1252   1.408       .  A
C1251      C1256   1.410       .  A
C1252      C1253   1.407       .  A
C1252      C1257   1.449       .  S
C1253      C1254   1.415       .  A
C1253      C1260   1.452       .  S
C1254      C1255   1.418       .  A
C1255      C1256   1.413       .  A
C1255      C1258   1.451       .  S
C1256      C1259   1.452   1_554  S
C1257      N1264   1.156       .  T
C1258      N1263   1.158       .  T
C1259      N1261   1.157       .  T
C1260      N1262   1.157       .  T
C1265      C1266   1.416       .  A
C1265      C1270   1.414       .  A
C1266      C1267   1.408       .  A
C1266      C1271   1.452       .  S
C1267      C1268   1.409       .  A
C1267      C1274   1.451       .  S
C1268      C1269   1.410       .  A
C1269      C1270   1.412       .  A
C1269      C1272   1.450       .  S
C1270      C1273   1.451       .  S
C1271      N1278   1.158       .  T
C1272      N1277   1.157       .  T
C1273      N1275   1.157       .  T
C1274      N1276   1.157       .  T
C1279      C1280   1.406       .  A
C1279      C1284   1.408       .  A
C1280      C1281   1.408       .  A
C1280      C1285   1.453       .  S
C1281      C1282   1.426       .  A
C1281      C1288   1.453       .  S
C1282      C1283   1.425       .  A
C1283      C1284   1.414       .  A
C1283      C1286   1.451       .  S
C1284      C1287   1.452       .  S
C1285      N1292   1.157       .  T
C1286      N1291   1.158       .  T
C1287      N1289   1.157       .  T
C1288      N1290   1.158       .  T
C1293      C1294   1.411       .  A
C1293      C1298   1.411       .  A
C1294      C1295   1.409       .  A
C1294      C1299   1.452       .  S
C1295      C1296   1.414       .  A
C1295      C1302   1.451       .  S
C1296      C1297   1.413       .  A
C1297      C1298   1.410       .  A
C1297      C1300   1.451       .  S
C1298      C1301   1.452       .  S
C1299      N1306   1.157       .  T
C1300      N1305   1.157       .  T
C1301      N1303   1.157       .  T
C1302      N1304   1.157       .  T
C1307      C1308   1.411       .  A
C1307      C1312   1.412       .  A
C1308      C1309   1.411       .  A
C1308      C1313   1.451       .  S
C1309      C1310   1.412       .  A
C1309      C1316   1.450       .  S
C1310      C1311   1.412       .  A
C1311      C1312   1.409       .  A
C1311      C1314   1.451       .  S
C1312      C1315   1.453       .  S
C1313      N1320   1.157       .  T
C1314      N1319   1.157       .  T
C1315      N1317   1.157       .  T
C1316      N1318   1.157       .  T
C1321      C1322   1.425       .  A
C1321      C1326   1.429       .  A
C1322      C1323   1.415       .  A
C1322      C1327   1.452       .  S
C1323      C1324   1.411       .  A
C1323      C1330   1.452       .  S
C1324      C1325   1.409       .  A
C1325      C1326   1.409       .  A
C1325      C1328   1.454       .  S
C1326      C1329   1.453       .  S
C1327      N1334   1.158       .  T
C1328      N1333   1.157       .  T
C1329      N1331   1.158       .  T
C1330      N1332   1.157       .  T
C1335      C1336   1.410       .  A
C1335      C1340   1.410       .  A
C1336      C1337   1.410       .  A
C1336      C1341   1.450       .  S
C1337      C1338   1.415       .  A
C1337      C1344   1.451       .  S
C1338      C1339   1.416       .  A
C1339      C1340   1.410       .  A
C1339      C1342   1.451       .  S
C1340      C1343   1.451       .  S
C1341      N1348   1.156       .  T
C1342      N1347   1.157       .  T
C1343      N1345   1.157       .  T
C1344      N1346   1.157       .  T
C1349      C1350   1.419       .  A
C1349      C1354   1.419       .  A
C1350      C1351   1.415       .  A
C1350      C1355   1.451       .  S
C1351      C1352   1.415       .  A
C1351      C1358   1.451       .  S
C1352      C1353   1.414       .  A
C1353      C1354   1.406       .  A
C1353      C1356   1.453       .  S
C1354      C1357   1.454       .  S
C1355      N1362   1.158       .  T
C1356      N1361   1.157       .  T
C1357      N1359   1.158       .  T
C1358      N1360   1.157       .  T
C1363      C1364   1.414       .  A
C1363      C1368   1.412       .  A
C1364      C1365   1.409       .  A
C1364      C1369   1.452       .  S
C1365      C1366   1.410       .  A
C1365      C1372   1.451       .  S
C1366      C1367   1.410       .  A
C1367      C1368   1.410       .  A
C1367      C1370   1.451       .  S
C1368      C1371   1.449       .  S
C1369      N1376   1.157       .  T
C1370      N1375   1.157       .  T
C1371      N1373   1.157       .  T
C1372      N1374   1.157       .  T
C1377      C1378   1.416       .  A
C1377      C1382   1.412       .  A
C1378      C1379   1.409       .  A
C1378      C1383   1.453       .  S
C1379      C1380   1.409       .  A
C1379      C1386   1.451       .  S
C1380      C1381   1.410       .  A
C1381      C1382   1.411       .  A
C1381      C1384   1.451       .  S
C1382      C1385   1.449       .  S
C1383      N1390   1.158       .  T
C1384      N1389   1.157       .  T
C1385      N1387   1.157       .  T
C1386      N1388   1.157       .  T
C1391      C1392   1.419       .  A
C1391      C1396   1.419       .  A
C1392      C1393   1.408       .  A
C1392      C1397   1.451       .  S
C1393      C1394   1.414       .  A
C1393      C1400   1.453       .  S
C1394      C1395   1.417       .  A
C1395      C1396   1.417       .  A
C1395      C1398   1.451       .  S
C1396      C1399   1.452       .  S
C1397      N1404   1.157       .  T
C1398      N1403   1.158       .  T
C1399      N1401   1.158       .  T
C1400      N1402   1.157       .  T
C1405      C1406   1.424       .  A
C1405      C1410   1.421       .  A
C1406      C1407   1.406       .  A
C1406      C1411   1.454       .  S
C1407      C1408   1.410       .  A
C1407      C1414   1.454       .  S
C1408      C1409   1.414       .  A
C1409      C1410   1.417       .  A
C1409      C1412   1.451       .  S
C1410      C1413   1.451       .  S
C1411      N1418   1.158       .  T
C1412      N1417   1.157       .  T
C1413      N1415   1.157       .  T
C1414      N1416   1.157       .  T
C1419      C1420   1.428       .  A
C1419      C1424   1.425       .  A
C1420      C1421   1.407       .  A
C1420      C1425   1.452       .  S
C1421      C1422   1.405       .  A
C1421      C1428   1.454       .  S
C1422      C1423   1.408       .  A
C1423      C1424   1.414       .  A
C1423      C1426   1.452       .  S
C1424      C1427   1.451       .  S
C1425      N1432   1.157       .  T
C1426      N1431   1.157       .  T
C1427      N1429   1.158       .  T
C1428      N1430   1.157       .  T
C1433      C1434   1.428       .  A
C1433      C1438   1.425       .  A
C1434      C1435   1.409       .  A
C1434      C1439   1.453       .  S
C1435      C1436   1.409       .  A
C1435      C1442   1.454       .  S
C1436      C1437   1.410       .  A
C1437      C1438   1.413       .  A
C1437      C1440   1.452       .  S
C1438      C1441   1.450       .  S
C1439      N1446   1.158       .  T
C1440      N1445   1.157       .  T
C1441      N1443   1.157       .  T
C1442      N1444   1.157       .  T
C1447      C1448   1.409       .  A
C1447      C1452   1.409       .  A
C1448      C1449   1.405       .  A
C1448      C1453   1.453       .  S
C1449      C1450   1.418       .  A
C1449      C1456   1.452       .  S
C1450      C1451   1.421       .  A
C1451      C1452   1.414       .  A
C1451      C1454   1.450       .  S
C1452      C1455   1.451       .  S
C1453      N1460   1.157       .  T
C1454      N1459   1.158       .  T
C1455      N1457   1.157       .  T
C1456      N1458   1.157       .  T
C1461      C1462   1.408       .  A
C1461      C1466   1.408       .  A
C1462      C1463   1.407       .  A
C1462      C1467   1.454       .  S
C1463      C1464   1.421       .  A
C1463      C1470   1.452       .  S
C1464      C1465   1.423       .  A
C1465      C1466   1.414       .  A
C1465      C1468   1.450       .  S
C1466      C1469   1.452       .  S
C1467      N1474   1.157       .  T
C1468      N1473   1.158       .  T
C1469      N1471   1.157       .  T
C1470      N1472   1.158       .  T
C1475      C1476   1.410       .  A
C1475      C1480   1.408       .  A
C1476      C1477   1.414       .  A
C1476      C1481   1.452       .  S
C1477      C1478   1.419       .  A
C1477      C1484   1.450       .  S
C1478      C1479   1.418       .  A
C1479      C1480   1.406       .  A
C1479      C1482   1.452       .  S
C1480      C1483   1.453       .  S
C1481      N1488   1.158       .  T
C1482      N1487   1.157       .  T
C1483      N1485   1.157       .  T
C1484      N1486   1.158       .  T
