geometry optimzed in LAMMPS
_audit_creation_date              2020-11-30 
_audit_creation_method            'lammps2cif' 
_symmetry_space_group_name_H-M    'P1' 
_symmetry_Int_Tables_number       1 
_symmetry_cell_setting            triclinic 
loop_ 
_symmetry_equiv_pos_as_xyz 
  x,y,z 
_cell_length_a                    37.50318042 
_cell_length_b                    37.31840050641292 
_cell_length_c                    39.19312794576246 
_cell_angle_alpha                 90.14440737333857 
_cell_angle_beta                  90.11890531717148 
_cell_angle_gamma                 120.31720294988807 
loop_ 
_atom_site_label 
_atom_site_type_symbol 
_atom_site_fract_x 
_atom_site_fract_y 
_atom_site_fract_z 
_atom_site_charge 
C1          C  0.46818689  0.08741016  0.33031156     0.43700
N2          N  0.49671880  0.07326653  0.28917503     0.02600
C3          C  0.41243895  0.89669841  0.18944708    -0.05300
H4          H  0.41810149  0.87262760  0.32267779     0.08100
C5          C  0.57361544  0.95537004  0.31503089    -0.05600
Co6        Co  0.43682570  0.99610788  0.25230850     0.74200
N7          N  0.43137249  0.92436295  0.28995133    -0.24800
Co8        Co  0.47202144  0.92605539  0.25251595     0.74100
C9          C  0.54285255  0.91715416  0.33151667     0.43800
N10         N  0.59286379  0.05286502  0.28941764     0.02200
N11         N  0.51409706  0.93049927  0.28993088     0.02300
N12         N  0.38944662  0.94237891  0.19096221    -0.45600
H13         H  0.40489414  0.02923892  0.31972523     0.08100
N14         N  0.41791590  0.95095360  0.28969808     0.02600
N15         N  0.51384481  0.92998224  0.21511499     0.02400
C16         C  0.54322432  0.91652677  0.17418702     0.44000
N17         N  0.57943147  0.07947672  0.28933015    -0.24200
C18         C  0.43594989  0.04667056  0.18991046    -0.05200
N19         N  0.50412197  0.10080691  0.31354341    -0.45300
N20         N  0.50696572  0.90264765  0.19064418    -0.45600
C21         C  0.46609161  0.08476516  0.17304147     0.43800
N22         N  0.41690242  0.94989311  0.21540888     0.02600
N23         N  0.57904465  0.07856172  0.21464888    -0.24300
N24         N  0.45798675  0.04260056  0.28902905    -0.24800
N25         N  0.59291203  0.05230236  0.21510393     0.02300
H26         H  0.59227077  0.13040184  0.18215462     0.08100
H27         H  0.60615548  0.97475754  0.18556950     0.08200
N28         N  0.43065568  0.92353929  0.21525189    -0.24800
N29         N  0.55285204  0.96112693  0.28967371    -0.24400
N30         N  0.49594102  0.07228925  0.21434222     0.02600
C31         C  0.38741638  0.91180842  0.33226551     0.44000
C32         C  0.59730572  0.10607074  0.31539181    -0.05700
N33         N  0.55255059  0.96072857  0.21565044    -0.24400
H34         H  0.60612683  0.97506585  0.32069442     0.08200
N35         N  0.39129502  0.94438595  0.31444063    -0.45600
H36         H  0.59299016  0.13186236  0.32164285     0.08200
C37         C  0.62382144  0.09199662  0.17291417     0.43900
C38         C  0.43738209  0.04882667  0.31412769    -0.05200
Co39       Co  0.53827232  0.07694828  0.25182458     0.73800
N40         N  0.61966077  0.05988999  0.31425094    -0.45400
C41         C  0.38530252  0.90931448  0.17354644     0.44100
N42         N  0.50251467  0.09904905  0.18958215    -0.45300
Co43       Co  0.57351785  0.00689523  0.25248140     0.73900
C44         C  0.57358826  0.95497464  0.19073303    -0.05700
C45         C  0.41374990  0.89830549  0.31618385    -0.05200
N46         N  0.45726429  0.04150629  0.21502660    -0.24800
N47         N  0.50684292  0.90351866  0.31459617    -0.45500
H48         H  0.41681104  0.87093505  0.18318571     0.08100
C49         C  0.59679430  0.10480712  0.18862481    -0.05600
Cl50       Cl  0.50516411  0.00150071  0.25224929    -0.48600
C51         C  0.62369071  0.09282180  0.33177995     0.43900
H52         H  0.40334953  0.02671026  0.18476805     0.08100
N53         N  0.62009987  0.05939947  0.19065132    -0.45400
C54         C  0.10000736  0.62662053  0.32529297     0.43700
N55         N  0.08400894  0.58221142  0.28494962     0.02600
C56         C  0.90135497  0.48893964  0.19305875    -0.05300
H57         H  0.88572669  0.47661801  0.32684051     0.08100
C58         C  0.96086473  0.38761126  0.31636337    -0.05600
Co59       Co  0.00714954  0.56653609  0.24878387     0.74200
N60         N  0.93677408  0.50685773  0.29167851    -0.24800
Co61       Co  0.93325595  0.46240464  0.25591475     0.74100
C62         C  0.92436105  0.38176070  0.33433233     0.43800
N63         N  0.05837530  0.46263263  0.28788124     0.02200
N64         N  0.93835913  0.42561832  0.29390235     0.02300
N65         N  0.94982850  0.55708866  0.18879940    -0.45600
H66         H  0.04415716  0.63457930  0.31381324     0.08100
N67         N  0.96523455  0.54628683  0.28783048     0.02600
N68         N  0.93200655  0.42041932  0.21936347     0.02400
C69         C  0.91457583  0.37663888  0.17818661     0.44000
N70         N  0.08615190  0.50262785  0.28689133    -0.24200
C71         C  0.05579613  0.61213918  0.18418318    -0.05200
N72         N  0.11176249  0.60217365  0.30926800    -0.45300
N73         N  0.90318313  0.40039119  0.19580936    -0.45600
C74         C  0.09284179  0.61771833  0.16742676     0.43800
N75         N  0.95828978  0.53880468  0.21402775     0.02600
N76         N  0.08146860  0.49924855  0.21248175    -0.24300
N77         N  0.05509344  0.59243463  0.28405498    -0.24800
N78         N  0.05375866  0.45925646  0.21334324     0.02300
H79         H  0.13177137  0.53660789  0.17850829     0.08100
H80         H  0.97184005  0.36999414  0.18612944     0.08200
N81         N  0.93019227  0.49913386  0.21722185    -0.24800
N82         N  0.96705020  0.41507268  0.29177540    -0.24400
N83         N  0.07983841  0.57754087  0.21027088     0.02600
C84         C  0.93039322  0.54783095  0.33024095     0.44000
C85         C  0.11397964  0.51095895  0.31176520    -0.05700
N86         N  0.96166539  0.41119967  0.21801856    -0.24400
H87         H  0.97863892  0.37240838  0.32003585     0.08200
N88         N  0.96243510  0.57143961  0.30999389    -0.45600
H89         H  0.14106432  0.54085718  0.31685798     0.08200
C90         C  0.09070868  0.46651957  0.16959919     0.43900
C91         C  0.06259369  0.62041078  0.30859167    -0.05200
Co92       Co  0.08384858  0.54091953  0.24881224     0.73800
N93         N  0.06566669  0.44256786  0.31227591    -0.45400
C94         C  0.91440907  0.52720472  0.17438755     0.44100
N95         N  0.10616803  0.59557709  0.18493023    -0.45300
Co96       Co  0.01025093  0.43633293  0.25265018     0.73900
C97         C  0.95331019  0.38362085  0.19285629    -0.05700
C98         C  0.91282458  0.50456606  0.31817109    -0.05200
N99         N  0.05020262  0.58673684  0.21027585    -0.24800
N100        N  0.91190447  0.40599850  0.31891705    -0.45500
H101        H  0.87406734  0.45875031  0.18960445     0.08100
C102        C  0.10599918  0.50674126  0.18561432    -0.05600
Cl103      Cl  0.00855160  0.50145999  0.25162655    -0.48600
C104        C  0.10020406  0.47111927  0.32849218     0.43900
H105        H  0.03707996  0.62590906  0.17859137     0.08100
N106        N  0.05835083  0.43811977  0.18805414    -0.45400
C107        C  0.37798429  0.46109669  0.33143879     0.43700
N108        N  0.42069132  0.49039088  0.29032226     0.02600
C109        C  0.51061830  0.40590652  0.18906826    -0.05300
H110        H  0.54218330  0.41162931  0.32047011     0.08100
C111        C  0.61457002  0.56727289  0.31491271    -0.05600
Co112      Co  0.43641734  0.43032347  0.25221867     0.74200
N113        N  0.50283695  0.42453581  0.28888396    -0.24800
Co114      Co  0.54158177  0.46590550  0.25182809     0.74100
C115        C  0.62177775  0.53642945  0.33106574     0.43800
N116        N  0.53811934  0.58755829  0.29029192     0.02200
N117        N  0.57966209  0.50767913  0.28945027     0.02300
N118        N  0.44189892  0.38238516  0.19054089    -0.45600
H119        H  0.37196451  0.39766776  0.31987941     0.08100
N120        N  0.46270405  0.41054545  0.28908976     0.02600
N121        N  0.57951392  0.50835744  0.21481800     0.02400
C122        C  0.62308599  0.53804337  0.17444889     0.44000
N123        N  0.49803270  0.57373188  0.29047257    -0.24200
C124        C  0.38401898  0.43116348  0.19063452    -0.05200
N125        N  0.40078709  0.49743625  0.31492122    -0.45300
N126        N  0.59961460  0.50146023  0.19039509    -0.45600
C127        C  0.37679580  0.46235806  0.17492510     0.43800
N128        N  0.46213872  0.41068644  0.21459450     0.02600
N129        N  0.49792004  0.57415198  0.21576544    -0.24300
N130        N  0.41208883  0.45143330  0.28966426    -0.24800
N131        N  0.53794828  0.58760895  0.21605741     0.02300
H132        H  0.46007791  0.58845919  0.18338798     0.08100
H133        H  0.62980544  0.60164310  0.18636953     0.08200
N134        N  0.50228140  0.42465443  0.21444208    -0.24800
N135        N  0.58808495  0.54654669  0.28952003    -0.24400
N136        N  0.42035847  0.49080675  0.21574722     0.02600
C137        C  0.47243569  0.37970034  0.33082973     0.44000
C138        C  0.48975522  0.59194557  0.31627132    -0.05700
N139        N  0.58850820  0.54739953  0.21577099    -0.24400
H140        H  0.62754209  0.59987039  0.32072370     0.08200
N141        N  0.44311348  0.38329176  0.31376228    -0.45600
H142        H  0.45972971  0.58766117  0.32240204     0.08200
C143        C  0.53008685  0.61921833  0.17397886     0.43900
C144        C  0.38528928  0.43041898  0.31472023    -0.05200
Co145      Co  0.45870919  0.53269281  0.25307759     0.73800
N146        N  0.55845842  0.61527797  0.31466764    -0.45400
C147        C  0.47068758  0.37808481  0.17333193     0.44100
N148        N  0.40020269  0.49840097  0.19179024    -0.45300
Co149      Co  0.56372058  0.56795335  0.25293974     0.73900
C150        C  0.61600513  0.56875730  0.19120915    -0.05700
C151        C  0.51189364  0.40682734  0.31451571    -0.05200
N152        N  0.41147217  0.45175800  0.21563691    -0.24800
N153        N  0.59934911  0.50028569  0.31400789    -0.45500
H154        H  0.54062755  0.40996507  0.18330402     0.08100
C155        C  0.48995678  0.59251685  0.18982163    -0.05600
Cl156      Cl  0.50006362  0.49917808  0.25248441    -0.48600
C157        C  0.52972710  0.61929756  0.33210986     0.43900
H158        H  0.37028477  0.39844064  0.18488444     0.08100
N159        N  0.55841223  0.61479857  0.19167108    -0.45400
C160        C  0.80524326  0.45310475  0.00226677     0.43700
N161        N  0.78109711  0.49078007  0.01899142     0.02600
C162        C  0.74648384  0.61956093  0.40876534    -0.05300
H163        H  0.89604109  0.63085983  0.39964632     0.08100
C164        C  0.91577862  0.68086653  0.03452194    -0.05600
Co165      Co  0.75872387  0.52683209  0.45470894     0.74200
N166        N  0.83811161  0.59460671  0.42671964    -0.24800
Co167      Co  0.82188621  0.63335444  0.45478994     0.77700
C168        C  0.94186900  0.69275756  0.49664663     0.43800
N169        N  0.84055748  0.59416296  0.07603428     0.02200
N170        N  0.87778258  0.66069646  0.48237259     0.02300
N171        N  0.70699975  0.54963690  0.41160954    -0.45600
H172        H  0.79593994  0.46308023  0.43974900     0.08100
N173        N  0.81197309  0.55422994  0.42723755     0.02600
N174        N  0.80294638  0.66861823  0.48384713     0.02400
C175        C  0.77376610  0.70346647  0.00530581     0.44000
N176        N  0.81745695  0.55338953  0.07402413    -0.24200
C177        C  0.66607409  0.47855818  0.47240815    -0.05200
N178        N  0.79608757  0.46763765  0.03035861    -0.45300
N179        N  0.78668918  0.69059821  0.47187831    -0.45600
C180        C  0.64233130  0.46398883  0.00795123     0.43800
N181        N  0.74075376  0.56370136  0.43025003     0.02600
N182        N  0.74343628  0.55870955  0.07539420    -0.24300
N183        N  0.77879486  0.49159777  0.47962028    -0.24800
N184        N  0.76471207  0.59952766  0.07739937     0.02300
H185        H  0.68766808  0.51140022  0.09777509     0.08100
H186        H  0.77857607  0.69166103  0.06220600     0.08200
N187        N  0.76479809  0.60439791  0.42900436    -0.24800
N188        N  0.87664131  0.66064974  0.02303634    -0.24400
N189        N  0.70633514  0.49706339  0.02122990     0.02600
C190        C  0.85920232  0.55904053  0.39412914     0.44000
C191        C  0.83435810  0.53608873  0.09291421    -0.05700
N192        N  0.80110316  0.66629695  0.02384534    -0.24400
H193        H  0.92526442  0.68558769  0.06101602     0.08200
N194        N  0.82313794  0.53250727  0.40826869    -0.45600
H195        H  0.82112070  0.50310971  0.09672060     0.08200
C196        C  0.71169170  0.58044626  0.10958681     0.43900
C197        C  0.79373027  0.46878267  0.46649865    -0.05200
Co198      Co  0.76191557  0.52437509  0.04779481     0.73800
N199        N  0.87328440  0.60615400  0.09615317    -0.45400
C200        C  0.70811032  0.58290667  0.39744528     0.44100
N201        N  0.66891769  0.47560139  0.03439689    -0.45300
Co202      Co  0.82135348  0.63135387  0.05076371     0.73900
C203        C  0.78413734  0.68812709  0.03568466    -0.05700
C204        C  0.86974791  0.60102035  0.40601193    -0.05200
N205        N  0.70541118  0.49926728  0.48282409    -0.24800
N206        N  0.91577683  0.68001761  0.46962961    -0.45500
H207        H  0.75906678  0.65179514  0.40195500     0.08100
C208        C  0.70981751  0.54398987  0.09452401    -0.05600
Cl209      Cl  0.79133463  0.57916334  0.00500657    -0.48600
C210        C  0.87144814  0.57099589  0.10755332     0.43900
H211        H  0.65556756  0.47268394  0.44617542     0.08100
N212        N  0.74681770  0.61412573  0.09812312    -0.45400
C213        C  0.64976652  0.18547331  0.00106558     0.43700
N214        N  0.71309338  0.21230356  0.01536573     0.02600
C215        C  0.88107561  0.25488827  0.41197635    -0.05300
H216        H  0.75154376  0.09997476  0.40858194     0.08100
C217        C  0.78188273  0.08977638  0.03526249    -0.05600
Co218      Co  0.77199695  0.23833129  0.45257294     0.74200
N219        N  0.76583745  0.15851778  0.43185305    -0.24800
Co220      Co  0.82047610  0.18090284  0.46089279     0.74100
C221        C  0.76606732  0.06434593  0.50782058     0.43800
N222        N  0.76439352  0.16281929  0.07422653     0.02200
N223        N  0.79352547  0.12736809  0.49114795     0.02300
N224        N  0.84598528  0.28931866  0.40881951    -0.45600
H225        H  0.66882672  0.19659737  0.43837723     0.08100
N226        N  0.74785231  0.18104507  0.42951283     0.02600
N227        N  0.87375966  0.20461442  0.49128866     0.02400
C228        C  0.93995464  0.23546564  0.00015427     0.44000
N229        N  0.74494567  0.18379793  0.07098384    -0.24200
C230        C  0.81543878  0.33388510  0.46398537    -0.05200
N231        N  0.67567196  0.19818764  0.02798773    -0.45300
N232        N  0.91214989  0.22058203  0.48000792    -0.45600
C233        C  0.81859558  0.35370219  0.99914527     0.43800
N234        N  0.82728593  0.25667074  0.42884887     0.02600
N235        N  0.82193233  0.26133899  0.07041849    -0.24300
N236        N  0.71658835  0.21942561  0.47712831    -0.24800
N237        N  0.84317247  0.24211102  0.07300858     0.02300
H238        H  0.82682102  0.31555243  0.09409587     0.08100
H239        H  0.92582813  0.23299287  0.05752955     0.08200
N240        N  0.84675147  0.23561512  0.43136932    -0.24800
N241        N  0.79810290  0.12816142  0.02246924    -0.24400
N242        N  0.79177525  0.29055644  0.01427504     0.02600
C243        C  0.71022828  0.12828181  0.39801803     0.44000
C244        C  0.71111928  0.16667894  0.09007221    -0.05700
N245        N  0.87620064  0.20737214  0.02041501    -0.24400
H246        H  0.77795342  0.08176181  0.06204095     0.08200
N247        N  0.71497524  0.16434891  0.40957124    -0.45600
H248        H  0.69052545  0.17880517  0.09284400     0.08200
C249        C  0.87388000  0.29495902  0.10643982     0.43900
C250        C  0.67798045  0.20273283  0.46491378    -0.05200
Co251      Co  0.76768596  0.23725407  0.04298019     0.73800
N252        N  0.74510409  0.13122009  0.09580007    -0.45400
C253        C  0.88028985  0.29068826  0.39723088     0.44100
N254        N  0.80681600  0.32854830  0.02637260    -0.45300
Co255      Co  0.82107956  0.18461684  0.04821669     0.73900
C256        C  0.91560529  0.22624719  0.03126489    -0.05700
C257        C  0.74407515  0.12413485  0.41256379    -0.05200
N258        N  0.79744288  0.29545615  0.47674965    -0.24800
N259        N  0.77885410  0.08882721  0.48001389    -0.45500
H260        H  0.90318085  0.24476928  0.40817827     0.08100
C261        C  0.83896365  0.29502085  0.09031168    -0.05600
Cl262      Cl  0.79451208  0.20846196  0.00132685    -0.48600
C263        C  0.71091961  0.13176755  0.10655313     0.43900
H264        H  0.81908417  0.34185047  0.43719707     0.08100
N265        N  0.87463614  0.26113081  0.09471054    -0.45400
C266        C  0.36076010  0.81842357  0.99910089     0.43700
N267        N  0.29743738  0.79183596  0.01303656     0.02600
C268        C  0.13390937  0.74568936  0.40767963    -0.05300
H269        H  0.25566994  0.90126887  0.40479115     0.08100
C270        C  0.22619788  0.91235844  0.03300057    -0.05600
Co271      Co  0.24275272  0.76856837  0.45437636     0.74200
N272        N  0.24454267  0.84529886  0.43067585    -0.24800
Co273      Co  0.18808808  0.82037759  0.45720459     0.74100
C274        C  0.23572005  0.93687914  0.50315093     0.43800
N275        N  0.24621373  0.84034110  0.07253341     0.02200
N276        N  0.21031129  0.87399311  0.48696449     0.02300
N277        N  0.17175089  0.71389561  0.40728598    -0.45600
H278        H  0.34644382  0.81209304  0.44439228     0.08100
N279        N  0.26483222  0.82490268  0.43046516     0.02600
N280        N  0.13267869  0.79393708  0.48481030     0.02400
C281        C  0.06761007  0.76220319  0.00280244     0.44000
N282        N  0.26577031  0.81949040  0.06905354    -0.24200
C283        C  0.20399021  0.67380486  0.46703663    -0.05200
N284        N  0.33482634  0.80575508  0.02577645    -0.45300
N285        N  0.09477201  0.77545889  0.47175867    -0.45600
C286        C  0.19469023  0.64958609  0.99516843     0.43800
N287        N  0.18791353  0.74643366  0.42788372     0.02600
N288        N  0.18942483  0.74130866  0.06807917    -0.24300
N289        N  0.29755214  0.79142566  0.48156546    -0.24800
N290        N  0.16815781  0.76040387  0.07158504     0.02300
H291        H  0.18374056  0.68560023  0.08874603     0.08100
H292        H  0.08526690  0.76767632  0.05956957     0.08200
N293        N  0.16671037  0.76585727  0.42856082    -0.24800
N294        N  0.20985206  0.87344536  0.02106081    -0.24400
N295        N  0.21999825  0.71232649  0.01157358     0.02600
C296        C  0.30096863  0.87688925  0.39814088     0.44000
C297        C  0.29954503  0.83650955  0.08842523    -0.05700
N298        N  0.13260365  0.79330871  0.02083937    -0.24400
H299        H  0.23168987  0.92165418  0.05954318     0.08200
N300        N  0.29824897  0.84244396  0.41137349    -0.45600
H301        H  0.32016585  0.82440365  0.09112536     0.08200
C302        C  0.13642571  0.70554174  0.10213319     0.43900
C303        C  0.33658099  0.80795342  0.47071676    -0.05200
Co304      Co  0.24332504  0.76596905  0.04069944     0.73800
N305        N  0.26526954  0.87159818  0.09468253    -0.45400
C306        C  0.13749991  0.71125464  0.39379027     0.44100
N307        N  0.20611389  0.67422249  0.02297464    -0.45300
Co308      Co  0.18879891  0.81758407  0.04725828     0.73900
C309        C  0.09387591  0.77375805  0.03299092    -0.05700
C310        C  0.26521945  0.87904417  0.41072280    -0.05200
N311        N  0.21965311  0.71237276  0.47937984    -0.24800
N312        N  0.22547135  0.91226608  0.47537570    -0.45500
H313        H  0.11131587  0.75476628  0.40211994     0.08100
C314        C  0.17189787  0.70652354  0.08628067    -0.05600
Cl315      Cl  0.21471346  0.79375675  0.99984597    -0.48600
C316        C  0.29949389  0.87105845  0.10548652     0.43900
H317        H  0.20112010  0.66519323  0.44037143     0.08100
N318        N  0.13597031  0.74003625  0.09214185    -0.45400
C319        C  0.58526374  0.87559935  0.40096434     0.43700
N320        N  0.60596305  0.84234723  0.43243791     0.02600
C321        C  0.48010348  0.67323222  0.03940614    -0.05300
H322        H  0.47746293  0.81148364  0.06397799     0.08100
C323        C  0.62809224  0.87795609  0.09554548    -0.05600
Co324      Co  0.53343719  0.76734100  0.46223160     0.74200
N325        N  0.50514137  0.79086831  0.02612233    -0.24800
Co326      Co  0.53756486  0.76779359  0.05216045     0.74100
C327        C  0.59083940  0.87661207  0.10871932     0.43800
N328        N  0.67520334  0.87296372  0.01876909     0.02200
N329        N  0.57313720  0.82393758  0.07648036     0.02300
N330        N  0.47749774  0.67490149  0.47718725    -0.45600
H331        H  0.51713569  0.82975640  0.41400987     0.08100
N332        N  0.50524718  0.79216913  0.49138478     0.02600
N333        N  0.57034110  0.74501768  0.07713121     0.02400
C334        C  0.58413455  0.70744678  0.10939745     0.44000
N335        N  0.67474184  0.87361459  0.48413057    -0.24200
C336        C  0.54456779  0.70961194  0.41392709    -0.05200
N337        N  0.61928612  0.87466344  0.41155671    -0.45300
N338        N  0.55329346  0.71182522  0.09668531    -0.45600
C339        C  0.57862829  0.70846077  0.39738658     0.43800
N340        N  0.50240524  0.71248658  0.48966120     0.02600
N341        N  0.67193879  0.79358046  0.48189941    -0.24300
N342        N  0.56541348  0.82210489  0.43549393    -0.24800
N343        N  0.67307089  0.79291764  0.01865848     0.02300
H344        H  0.69588635  0.77147175  0.44201982     0.08100
H345        H  0.65432767  0.74976247  0.10099886     0.08200
N346        N  0.50321115  0.71163532  0.02700767    -0.24800
N347        N  0.61389500  0.84379504  0.07575365    -0.24400
N348        N  0.60290243  0.76194136  0.43034050     0.02600
C349        C  0.46659918  0.81588934  0.00665778     0.44000
C350        C  0.69644232  0.91283432  0.47286011    -0.05700
N351        N  0.61101682  0.76354843  0.07607307    -0.24400
H352        H  0.66021508  0.90017770  0.10073989     0.08200
N353        N  0.48183301  0.80662752  0.47977305    -0.45600
H354        H  0.69961941  0.92248413  0.44650811     0.08200
C355        C  0.70723405  0.76378616  0.00263161     0.43900
C356        C  0.54971335  0.84076321  0.41693290    -0.05200
Co357      Co  0.63994115  0.81838812  0.45653607     0.73800
N358        N  0.69752214  0.91139132  0.03069570    -0.45400
C359        C  0.46403374  0.64711380  0.00923310     0.44100
N360        N  0.61411918  0.74208366  0.40849857    -0.45300
Co361      Co  0.64442573  0.81876636  0.04793970     0.73900
C362        C  0.62283660  0.74188347  0.09595706    -0.05700
C363        C  0.48272338  0.80728506  0.03751326    -0.05200
N364        N  0.56244380  0.74341127  0.43351339    -0.24800
N365        N  0.55825465  0.84221197  0.09589514    -0.45500
H366        H  0.47481588  0.66487380  0.06608353     0.08100
C367        C  0.69251244  0.77587210  0.46885456    -0.05600
Cl368      Cl  0.58803738  0.79145282  0.00589694    -0.48600
C369        C  0.71268529  0.93799970  0.50362256     0.43900
H370        H  0.51160576  0.68956515  0.41097239     0.08100
N371        N  0.69472577  0.77621002  0.03028845    -0.45400
C372        C  0.19287092  0.54091720  0.99496879     0.43700
N373        N  0.21653639  0.50263109  0.01180751     0.02600
C374        C  0.25674650  0.37675977  0.41260608    -0.05300
H375        H  0.10473242  0.34849249  0.40516022     0.08100
C376        C  0.09094577  0.31224955  0.02807288    -0.05600
Co377      Co  0.23778173  0.46659610  0.45716304     0.74200
N378        N  0.16022152  0.39259259  0.43231881    -0.24800
Co379      Co  0.18200620  0.35949207  0.46086633     0.74100
C380        C  0.06398043  0.29677604  0.50608400     0.43800
N381        N  0.16185092  0.39981520  0.06947965     0.02200
N382        N  0.12735243  0.33031093  0.48999386     0.02300
N383        N  0.29115160  0.44695316  0.41226731    -0.45600
H384        H  0.19747490  0.52788360  0.44323054     0.08100
N385        N  0.18225738  0.43351737  0.43152839     0.02600
N386        N  0.20571045  0.32897695  0.49018831     0.02400
C387        C  0.23621749  0.29540493  0.00233689     0.44000
N388        N  0.18290067  0.44058758  0.06690585    -0.24200
C389        C  0.33157706  0.52268112  0.47149222    -0.05200
N390        N  0.20250762  0.52668749  0.02296932    -0.45300
N391        N  0.22251065  0.30747535  0.47840225    -0.45600
C392        C  0.35776266  0.53841062  0.00340051     0.43800
N393        N  0.25854672  0.43171259  0.43238742     0.02600
N394        N  0.25962939  0.44031645  0.07042788    -0.24300
N395        N  0.21601698  0.50022741  0.48258472    -0.24800
N396        N  0.23989406  0.39948729  0.07242571     0.02300
H397        H  0.31360816  0.48914447  0.09475117     0.08100
H398        H  0.22957686  0.30711060  0.05898785     0.08200
N399        N  0.23750637  0.39074491  0.43305442    -0.24800
N400        N  0.12997776  0.33275248  0.01689576    -0.24400
N401        N  0.29387870  0.50180357  0.01557454     0.02600
C402        C  0.13244568  0.41893392  0.39690222     0.44000
C403        C  0.16465088  0.45671439  0.08539422    -0.05700
N404        N  0.20762700  0.33179439  0.01960202    -0.24400
H405        H  0.08133702  0.30872564  0.05443848     0.08200
N406        N  0.16701795  0.45027443  0.41073127    -0.45600
H407        H  0.17667362  0.48956557  0.08895759     0.08200
C408        C  0.29158061  0.42056929  0.10658611     0.43900
C409        C  0.20065719  0.52290312  0.46996496    -0.05200
Co410      Co  0.23841541  0.47188279  0.04148727     0.73800
N411        N  0.12945740  0.38668106  0.09002256    -0.45400
C412        C  0.29237572  0.41431822  0.39898228     0.44100
N413        N  0.33081445  0.52504201  0.02941303    -0.45300
Co414      Co  0.18434882  0.36488678  0.04520139     0.73900
C415        C  0.22491973  0.31067365  0.03225392    -0.05700
C416        C  0.12766868  0.38030426  0.41108176    -0.05200
N417        N  0.29315742  0.49936805  0.48342558    -0.24800
N418        N  0.08875554  0.30917553  0.47835560    -0.45500
H419        H  0.24628733  0.34454667  0.40700094     0.08100
C420        C  0.29256841  0.45634375  0.09087806    -0.05600
Cl421      Cl  0.21228017  0.41642401  0.99905860    -0.48600
C422        C  0.12909732  0.42106902  0.10074225     0.43900
H423        H  0.34024661  0.52825936  0.44489256     0.08100
N424        N  0.25791574  0.38615857  0.09414832    -0.45400
C425        C  0.42485772  0.13005748  0.39776308     0.43700
N426        N  0.40334554  0.16148184  0.43054564     0.02600
C427        C  0.52506402  0.32553055  0.03873363    -0.05300
H428        H  0.52993501  0.18785081  0.06201231     0.08100
C429        C  0.38066561  0.11982061  0.09122223    -0.05600
Co430      Co  0.47506794  0.23632112  0.46159124     0.74200
N431        N  0.50307801  0.20861254  0.02362227    -0.24800
Co432      Co  0.47029126  0.23098738  0.04978466     0.74100
C433        C  0.41810045  0.12187258  0.10511530     0.43800
N434        N  0.33425677  0.12640470  0.01339501     0.02200
N435        N  0.43531206  0.17445040  0.07314289     0.02300
N436        N  0.52716850  0.32826024  0.47910432    -0.45600
H437        H  0.49284569  0.17717624  0.41062877     0.08100
N438        N  0.50444713  0.21128263  0.48868457     0.02600
N439        N  0.43676653  0.25284346  0.07538230     0.02400
C440        C  0.42072521  0.28798399  0.10883452     0.44000
N441        N  0.33566267  0.12765737  0.48282292    -0.24200
C442        C  0.46165087  0.29400843  0.41509459    -0.05200
N443        N  0.39040248  0.12953449  0.40911083    -0.45300
N444        N  0.45259545  0.28519635  0.09620330    -0.45600
C445        C  0.42677127  0.29401660  0.39878362     0.43800
N446        N  0.50509967  0.28991783  0.49068300     0.02600
N447        N  0.33683387  0.20643806  0.48409836    -0.24300
N448        N  0.44392703  0.18265131  0.43328041    -0.24800
N449        N  0.33612892  0.20572895  0.01484300     0.02300
H450        H  0.31157676  0.22922502  0.44594104     0.08100
H451        H  0.35107903  0.24460431  0.09854686     0.08200
N452        N  0.50403571  0.28725426  0.02551676    -0.24800
N453        N  0.39458616  0.15401299  0.07167416    -0.24400
N454        N  0.40428750  0.24079849  0.43155419     0.02600
C455        C  0.54168228  0.18345887  0.00501548     0.44000
C456        C  0.31351242  0.08896377  0.47039469    -0.05700
N457        N  0.39611569  0.23354771  0.07353910    -0.24400
H458        H  0.34860324  0.09733017  0.09607670     0.08200
N459        N  0.52768904  0.19753097  0.47546547    -0.45600
H460        H  0.30933522  0.08026038  0.44371497     0.08200
C461        C  0.30241564  0.23536510  0.99952173     0.43900
C462        C  0.46015571  0.16529170  0.41379277    -0.05200
Co463      Co  0.36892882  0.18353206  0.45660249     0.73800
N464        N  0.31106145  0.08809073  0.02479824    -0.45400
C465        C  0.54076790  0.35224269  0.00917775     0.44100
N466        N  0.39197580  0.25986222  0.40991742    -0.45300
Co467      Co  0.36418513  0.17938368  0.04383735     0.73900
C468        C  0.38294042  0.25357706  0.09400121    -0.05700
C469        C  0.52514564  0.19209795  0.03544858    -0.05200
N470        N  0.44481329  0.26021550  0.43452031    -0.24800
N471        N  0.45044741  0.15664905  0.09282943    -0.45500
H472        H  0.52874830  0.33349819  0.06556079     0.08100
C473        C  0.31556808  0.22398617  0.47244446    -0.05600
Cl474      Cl  0.42077232  0.20772662  0.00241625    -0.48600
C475        C  0.29760830  0.06302175  0.50049111     0.43900
H476        H  0.49444502  0.31442332  0.41169416     0.08100
N477        N  0.31442822  0.22212570  0.02687242    -0.45400
C478        C  0.27863531  0.25603027  0.00092853    -0.12000
C479        C  0.25902045  0.27370039  0.00162420    -0.13600
C480        C  0.43014143  0.60568663  0.00819713    -0.12000
C481        C  0.39845815  0.57316024  0.00622941    -0.13600
C482        C  0.25615015  0.98126182  0.50223878    -0.12000
C483        C  0.27448344  0.01859834  0.50148045    -0.13600
C484        C  0.18787823  0.60840420  0.99537372    -0.12000
C485        C  0.18730206  0.57597979  0.99529121    -0.13600
C486        C  0.43278875  0.82325324  0.00438843    -0.12000
C487        C  0.40132721  0.82409494  0.00137300    -0.13600
C488        C  0.73296153  0.98260533  0.50596504    -0.12000
C489        C  0.74854894  0.01993535  0.50719971    -0.13600
C490        C  0.98428291  0.25709201  0.99715188    -0.12000
C491        C  0.02155761  0.27543177  0.99572015    -0.13600
C492        C  0.57633668  0.17747618  0.00403199    -0.12000
C493        C  0.60863464  0.17816357  0.00271845    -0.13600
C494        C  0.02299025  0.73819069  0.00172675    -0.12000
C495        C  0.98559480  0.71800189  0.00205854    -0.13600
C496        C  0.75073582  0.72515244  0.00392502    -0.12000
C497        C  0.73105110  0.74289804  0.00348046    -0.13600
C498        C  0.81728408  0.42264994  0.00216611    -0.12000
C499        C  0.82186053  0.39322892  0.00056384    -0.13600
C500        C  0.57183694  0.39485361  0.00949332    -0.12000
C501        C  0.60206927  0.42859830  0.00932608    -0.13600
C502        C  0.42524708  0.31887892  0.13486143    -0.15200
C503        C  0.46305663  0.34758690  0.14613873    -0.30300
H504        H  0.39777470  0.31755981  0.14518523     0.13900
H505        H  0.49018244  0.34832399  0.13561543     0.14400
C506        C  0.46624292  0.35212443  0.35974290    -0.15200
C507        C  0.42917305  0.32228078  0.37119382    -0.30300
H508        H  0.49434458  0.35611324  0.37112347     0.13900
H509        H  0.40088258  0.31772337  0.35954390     0.14400
C510        C  0.65165377  0.54325740  0.14682810    -0.15200
C511        C  0.68271940  0.57994294  0.13554220    -0.30300
H512        H  0.64748286  0.51439635  0.13667586     0.13900
H513        H  0.68769067  0.60900382  0.14617888     0.14400
C514        C  0.67866550  0.57973827  0.37109538    -0.15200
C515        C  0.65014658  0.54219351  0.35907957    -0.30300
H516        H  0.68158122  0.60797334  0.36058829     0.13900
H517        H  0.64851185  0.51427693  0.36909012     0.14400
C518        C  0.53904934  0.64893379  0.14612378    -0.15200
C519        C  0.57760434  0.67601475  0.13529837    -0.30300
H520        H  0.51273038  0.64937799  0.13501487     0.13900
H521        H  0.60420385  0.67605149  0.14630891     0.14400
C522        C  0.53723316  0.64842537  0.36022728    -0.15200
C523        C  0.57487837  0.67869052  0.37054189    -0.30300
H524        H  0.50965540  0.64524287  0.37194682     0.13900
H525        H  0.60261426  0.68232261  0.35859960     0.14400
C526        C  0.34846208  0.45799469  0.14718795    -0.15200
C527        C  0.31968018  0.42152516  0.13359736    -0.30300
H528        H  0.35104175  0.48674091  0.13851091     0.13900
H529        H  0.31611060  0.39249633  0.14281345     0.14400
C530        C  0.32186386  0.41789335  0.37234222    -0.15200
C531        C  0.34923124  0.45523917  0.35935811    -0.30300
H532        H  0.32019344  0.38979295  0.36270438     0.13900
H533        H  0.34990362  0.48297158  0.36879977     0.14400
C534        C  0.89910684  0.56897397  0.13359756    -0.15200
C535        C  0.89091400  0.53220941  0.14651246    -0.30300
H536        H  0.92516671  0.59765339  0.14309736     0.13900
H537        H  0.86434437  0.50376227  0.13742256     0.14400
C538        C  0.87880219  0.54308037  0.37086635    -0.15200
C539        C  0.91458841  0.56625419  0.35512766    -0.30300
H540        H  0.86184215  0.50982892  0.36617331     0.13900
H541        H  0.93186252  0.59957743  0.35938496     0.14400
C542        C  0.89985639  0.32254717  0.13439792    -0.15200
C543        C  0.89052824  0.34916529  0.14968638    -0.30300
H544        H  0.92603928  0.32007849  0.14306551     0.13900
H545        H  0.86359276  0.35061833  0.14165059     0.14400
C546        C  0.90024166  0.35116679  0.36088243    -0.15200
C547        C  0.90828923  0.32183474  0.37226819    -0.30300
H548        H  0.87361399  0.35213349  0.37054427     0.13900
H549        H  0.93448311  0.32004892  0.36270974     0.14400
C550        C  0.10306933  0.42263793  0.12846490    -0.15200
C551        C  0.10928563  0.45961153  0.13920520    -0.30300
H552        H  0.08106583  0.39425437  0.14128463     0.13900
H553        H  0.13165084  0.48773681  0.12645144     0.14400
C554        C  0.12118657  0.46293483  0.35678528    -0.15200
C555        C  0.10867189  0.42474105  0.36937034    -0.30300
H556        H  0.14863070  0.48966280  0.36719812     0.13900
H557        H  0.08158221  0.39770204  0.35892029     0.14400
C558        C  0.10904505  0.67559222  0.12788643    -0.15200
C559        C  0.11620271  0.64589531  0.13953026    -0.30300
H560        H  0.08422154  0.67912411  0.13833555     0.13900
H561        H  0.14170994  0.64317835  0.12971957     0.14400
C562        C  0.12305190  0.65516867  0.35347366    -0.15200
C563        C  0.11227957  0.68155712  0.36691147    -0.30300
H564        H  0.15029479  0.65506962  0.36282007     0.13900
H565        H  0.08547987  0.68236530  0.35746792     0.14400
C566        C  0.32801484  0.89646180  0.13338328    -0.15200
C567        C  0.35710698  0.88816328  0.14474991    -0.30300
H568        H  0.32437268  0.92074605  0.14522224     0.13900
H569        H  0.36015846  0.86344392  0.13327404     0.14400
C570        C  0.33126351  0.90189242  0.37160680    -0.15200
C571        C  0.35879970  0.89128433  0.36072826    -0.30300
H572        H  0.32989188  0.92760294  0.36008224     0.13900
H573        H  0.35952957  0.86521139  0.37224237     0.14400
C574        C  0.58706733  0.90339246  0.13451537    -0.15200
C575        C  0.54960136  0.89337045  0.14676255    -0.30300
H576        H  0.61490221  0.93021052  0.14423648     0.13900
H577        H  0.52215474  0.86590866  0.13724633     0.14400
C578        C  0.58398578  0.90248148  0.37370726    -0.15200
C579        C  0.54753229  0.89438202  0.36019098    -0.30300
H580        H  0.61279621  0.92762410  0.36383693     0.13900
H581        H  0.51899884  0.86839561  0.36944207     0.14400
C582        C  0.68194872  0.10570668  0.13372244    -0.15200
C583        C  0.65202239  0.11309818  0.14433861    -0.30300
H584        H  0.68604460  0.08185823  0.14577509     0.13900
H585        H  0.64842358  0.13728227  0.13254366     0.14400
C586        C  0.67935384  0.10268250  0.37184202    -0.15200
C587        C  0.65262815  0.11394884  0.36012038    -0.30300
H588        H  0.67958560  0.07585793  0.36130857     0.13900
H589        H  0.65281494  0.14091957  0.37083570     0.14400
C590        C  0.45954078  0.10701547  0.14491763    -0.15200
C591        C  0.42212302  0.09595592  0.13161991    -0.30300
H592        H  0.48683793  0.13461817  0.13563064     0.13900
H593        H  0.39443172  0.06892611  0.14101976     0.14400
C594        C  0.46323713  0.11091830  0.35822371    -0.15200
C595        C  0.42655921  0.10289817  0.37096182    -0.30300
H596        H  0.49165638  0.13719338  0.36757136     0.13900
H597        H  0.39790848  0.07735086  0.36101132     0.14400
C598        C  0.47201428  0.09087619  0.82564794     0.43700
N599        N  0.49983307  0.07377333  0.78562270     0.02600
C600        C  0.41005910  0.89306276  0.69059791    -0.05300
H601        H  0.41207549  0.87204693  0.82416773     0.08100
C602        C  0.56713773  0.94942891  0.82005234    -0.05600
Co603      Co  0.43819103  0.99579714  0.75052277     0.74200
N604        N  0.42805433  0.92355056  0.79046636    -0.24800
Co605      Co  0.46831491  0.92161479  0.75468931     0.74100
C606        C  0.53565110  0.91203824  0.83665500     0.43800
N607        N  0.59097920  0.04653061  0.79146718     0.02200
N608        N  0.50827396  0.92508734  0.79390375     0.02300
N609        N  0.39028476  0.94129730  0.69003598    -0.45600
H610        H  0.40798922  0.03342745  0.81576815     0.08100
N611        N  0.41644291  0.95157827  0.78909259     0.02600
N612        N  0.51043535  0.92201155  0.71887746     0.02400
C613        C  0.54065054  0.90704399  0.67943186     0.44000
N614        N  0.58014392  0.07505244  0.78898462    -0.24200
C615        C  0.44030638  0.04590419  0.68703984    -0.05200
N616        N  0.50791438  0.10248102  0.80919830    -0.45300
N617        N  0.50369166  0.89440431  0.69456551    -0.45600
C618        C  0.47121247  0.08308679  0.66962036     0.43800
N619        N  0.41707738  0.94822300  0.71488715     0.02600
N620        N  0.58276104  0.07056289  0.71436239    -0.24300
N621        N  0.46070327  0.04394297  0.78583459    -0.24800
N622        N  0.59354187  0.04210951  0.71795923     0.02300
H623        H  0.60403894  0.12240756  0.67987333     0.08100
H624        H  0.60388892  0.96380971  0.69233350     0.08200
N625        N  0.42897551  0.92039263  0.71598514    -0.24800
N626        N  0.54726681  0.95500632  0.79405773    -0.24400
N627        N  0.50045284  0.06919871  0.71072520     0.02600
C628        C  0.38397762  0.91379251  0.83181545     0.44000
C629        C  0.59852878  0.10264838  0.81432027    -0.05700
N630        N  0.54956230  0.95159395  0.72043782    -0.24400
H631        H  0.59973238  0.96844585  0.82569013     0.08200
N632        N  0.38962479  0.94665538  0.81328058    -0.45600
H633        H  0.59613382  0.12994903  0.81875803     0.08200
C634        C  0.63065621  0.07827747  0.67629348     0.43900
C635        C  0.44058458  0.05205874  0.81016746    -0.05200
Co636      Co  0.54139178  0.07333637  0.74962571     0.73800
N637        N  0.61663347  0.05326030  0.81715236    -0.45400
C638        C  0.38456562  0.90706359  0.67363703     0.44100
N639        N  0.50774237  0.09604331  0.68578707    -0.45300
Co640      Co  0.57071170  0.99891025  0.75613619     0.73900
C641        C  0.57104179  0.94479950  0.69663597    -0.05700
C642        C  0.40919891  0.89839347  0.81686201    -0.05200
N643        N  0.46114452  0.03986071  0.71201215    -0.24800
N644        N  0.49994277  0.89845753  0.81913544    -0.45500
H645        H  0.41273757  0.86604207  0.68539849     0.08100
C646        C  0.60474843  0.09519044  0.68826665    -0.05600
Cl647      Cl  0.50460122  0.99744661  0.75263725    -0.48600
C648        C  0.62247337  0.08796679  0.83280681     0.43900
H649        H  0.40734871  0.02749513  0.68274851     0.08100
N650        N  0.62197227  0.04577408  0.69612975    -0.45400
C651        C  0.09657118  0.62791222  0.82639536     0.43700
N652        N  0.08080735  0.58404172  0.78579930     0.02600
C653        C  0.89848297  0.49122855  0.69349160    -0.05300
H654        H  0.88383391  0.47965012  0.82861036     0.08100
C655        C  0.95677914  0.38973910  0.81790801    -0.05600
Co656      Co  0.00427959  0.56888139  0.74931105     0.74200
N657        N  0.93391626  0.50974178  0.79253072    -0.24800
Co658      Co  0.93023962  0.46499566  0.75690906     0.74100
C659        C  0.92008262  0.38396769  0.83565462     0.43800
N660        N  0.05522484  0.46473720  0.78954834     0.02200
N661        N  0.93495939  0.42817946  0.79521195     0.02300
N662        N  0.94722806  0.55917441  0.68870280    -0.45600
H663        H  0.04121407  0.63660659  0.81466812     0.08100
N664        N  0.96219501  0.54916815  0.78831553     0.02600
N665        N  0.92911400  0.42286120  0.72053336     0.02400
C666        C  0.91195920  0.37939291  0.67914136     0.44000
N667        N  0.08300408  0.50471782  0.78833588    -0.24200
C668        C  0.05320221  0.61357506  0.68458930    -0.05200
N669        N  0.10828047  0.60349525  0.81036560    -0.45300
N670        N  0.90061835  0.40324593  0.69666127    -0.45600
C671        C  0.09008156  0.61856590  0.66797120     0.43800
N672        N  0.95543541  0.54116448  0.71436514     0.02600
N673        N  0.07873468  0.50100379  0.71407971    -0.24300
N674        N  0.05211130  0.59456387  0.78472778    -0.24800
N675        N  0.05110033  0.46099610  0.71496837     0.02300
H676        H  0.13012074  0.53830995  0.68105563     0.08100
H677        H  0.96892876  0.37232099  0.68743987     0.08200
N678        N  0.92721549  0.50157497  0.71782763    -0.24800
N679        N  0.96350099  0.41738849  0.79330276    -0.24400
N680        N  0.07696858  0.57910772  0.71126585     0.02600
C681        C  0.92822414  0.55094645  0.83134642     0.44000
C682        C  0.11134260  0.51317005  0.81275895    -0.05700
N683        N  0.95862512  0.41339138  0.71941683    -0.24400
H684        H  0.97427021  0.37425457  0.82167483     0.08200
N685        N  0.95974190  0.57446939  0.81057086    -0.45600
H686        H  0.13876104  0.54299159  0.81729725     0.08200
C687        C  0.08946649  0.46821758  0.67213296     0.43900
C688        C  0.05954011  0.62232777  0.80942199    -0.05200
Co689      Co  0.08076656  0.54273006  0.75003183     0.73800
N690        N  0.06319024  0.44472902  0.81356021    -0.45400
C691        C  0.91174391  0.52925273  0.67430472     0.44100
N692        N  0.10326173  0.59657360  0.68583423    -0.45300
Co693      Co  0.00709229  0.43836431  0.75421972     0.73900
C694        C  0.95039146  0.38595269  0.69415432    -0.05700
C695        C  0.91055649  0.50759603  0.81945061    -0.05200
N696        N  0.04748726  0.58852834  0.71097588    -0.24800
N697        N  0.90813953  0.40853183  0.82004614    -0.45500
H698        H  0.87123567  0.46100391  0.69007605     0.08100
C699        C  0.10403369  0.50846698  0.68779210    -0.05600
Cl700      Cl  0.00551341  0.50362930  0.75270211    -0.48600
C701        C  0.09806266  0.47340267  0.82936665     0.43900
H702        H  0.03457844  0.62734874  0.67863953     0.08100
N703        N  0.05665231  0.43978213  0.69025637    -0.45400
C704        C  0.38500183  0.46363846  0.83128529     0.43700
N705        N  0.42685903  0.49255582  0.78962064     0.02600
C706        C  0.51719210  0.40871256  0.68841796    -0.05300
H707        H  0.54875145  0.41404766  0.82009230     0.08100
C708        C  0.62034868  0.56981638  0.81543239    -0.05600
Co709      Co  0.44304297  0.43281827  0.75177780     0.74200
N710        N  0.50951351  0.42717209  0.78852955    -0.24800
Co711      Co  0.54833435  0.46875198  0.75157079     0.74100
C712        C  0.62722015  0.53874890  0.83174413     0.43800
N713        N  0.54361072  0.58990465  0.79000322     0.02200
N714        N  0.58609310  0.51054740  0.78937412     0.02300
N715        N  0.44856296  0.38558439  0.69011631    -0.45600
H716        H  0.37930304  0.40025883  0.82006528     0.08100
N717        N  0.46937838  0.41315097  0.78866491     0.02600
N718        N  0.58646758  0.51139594  0.71472245     0.02400
C719        C  0.63009446  0.54101514  0.67431839     0.44000
N720        N  0.50345340  0.57568430  0.78971147    -0.24200
C721        C  0.39015968  0.43304145  0.69022051    -0.05200
N722        N  0.40728325  0.49975993  0.81438893    -0.45300
N723        N  0.60667392  0.50450629  0.69038073    -0.45600
C724        C  0.38270463  0.46408250  0.67447578     0.43800
N725        N  0.46897110  0.41360085  0.71425069     0.02600
N726        N  0.50378948  0.57611471  0.71512762    -0.24300
N727        N  0.41854127  0.45370665  0.78918894    -0.24800
N728        N  0.54394068  0.59014496  0.71545983     0.02300
H729        H  0.46514460  0.58907511  0.68257679     0.08100
H730        H  0.63640081  0.60453356  0.68591953     0.08200
N731        N  0.50909772  0.42745416  0.71400726    -0.24800
N732        N  0.59441947  0.54940580  0.78956492    -0.24400
N733        N  0.42658659  0.49283141  0.71503750     0.02600
C734        C  0.47895487  0.38204454  0.83031549     0.44000
C735        C  0.49419624  0.59284003  0.81565623    -0.05700
N736        N  0.59530806  0.55040974  0.71557858    -0.24400
H737        H  0.63298812  0.60227840  0.82161435     0.08200
N738        N  0.44971274  0.38574114  0.81321589    -0.45600
H739        H  0.46381237  0.58770303  0.82161042     0.08200
C740        C  0.53512577  0.62080407  0.67306149     0.43900
C741        C  0.39223297  0.43288596  0.81458358    -0.05200
Co742      Co  0.46470455  0.53472687  0.75232861     0.73800
N743        N  0.56306006  0.61685127  0.81510716    -0.45400
C744        C  0.47707705  0.38116536  0.67269698     0.44100
N745        N  0.40616624  0.50021735  0.69118768    -0.45300
Co746      Co  0.57001227  0.57079339  0.75268135     0.73900
C747        C  0.62279319  0.57170889  0.69094379    -0.05700
C748        C  0.51847324  0.40929141  0.81410841    -0.05200
N749        N  0.41780204  0.45383785  0.71507078    -0.24800
N750        N  0.60518070  0.50287286  0.81426939    -0.45500
H751        H  0.54711585  0.41267110  0.68244166     0.08100
C752        C  0.49527820  0.59380718  0.68904517    -0.05600
Cl753      Cl  0.50652993  0.50175292  0.75203638    -0.48600
C754        C  0.53353866  0.61987363  0.83232618     0.43900
H755        H  0.37637082  0.40027596  0.68464691     0.08100
N756        N  0.56397292  0.61719591  0.69082488    -0.45400
C757        C  0.80733182  0.45575518  0.49594631     0.43700
N758        N  0.78148127  0.49163610  0.51313783     0.02600
C759        C  0.74757237  0.61970097  0.91400177    -0.05300
H760        H  0.89684032  0.63255774  0.90606979     0.08100
C761        C  0.91685077  0.67995972  0.52740905    -0.05600
Co762      Co  0.75958284  0.52677218  0.96026697     0.74200
N763        N  0.83913548  0.59538673  0.93321403    -0.24800
Co764      Co  0.82176700  0.63339132  0.96114251     0.77700
C765        C  0.94101508  0.69413572  0.00384811     0.43800
N766        N  0.84181124  0.59480832  0.57011127     0.02200
N767        N  0.87710976  0.66108131  0.98925880     0.02300
N768        N  0.70853250  0.54968548  0.91570717    -0.45600
H769        H  0.79548281  0.46165755  0.94587291     0.08100
N770        N  0.81367207  0.55486167  0.93380975     0.02600
N771        N  0.80169247  0.66778025  0.99008169     0.02400
C772        C  0.77609421  0.70528213  0.49929732     0.44000
N773        N  0.81845868  0.55404168  0.56842606    -0.24200
C774        C  0.66649905  0.47855034  0.97692767    -0.05200
N775        N  0.79822961  0.46998145  0.52423352    -0.45300
N776        N  0.78513012  0.68939676  0.97797641    -0.45600
C777        C  0.64243471  0.46413107  0.50368503     0.43800
N778        N  0.74163504  0.56360531  0.93524620     0.02600
N779        N  0.74486939  0.56007663  0.57009943    -0.24300
N780        N  0.77922999  0.49122395  0.98545629    -0.24800
N781        N  0.76650672  0.60091608  0.57189422     0.02300
H782        H  0.68992378  0.51321485  0.59386318     0.08100
H783        H  0.78148761  0.69368653  0.55614268     0.08200
N784        N  0.76537716  0.60435142  0.93459301    -0.24800
N785        N  0.87763840  0.66038311  0.51616484    -0.24400
N786        N  0.70664202  0.49783238  0.51629515     0.02600
C787        C  0.86157304  0.56069651  0.90093084     0.44000
C788        C  0.83462740  0.53678937  0.58836136    -0.05700
N789        N  0.80280361  0.66737097  0.51761770    -0.24400
H790        H  0.92653952  0.68457934  0.55384412     0.08200
N791        N  0.82573646  0.53362181  0.91516847    -0.45600
H792        H  0.82079878  0.50387571  0.59296450     0.08200
C793        C  0.71497002  0.58241768  0.60578867     0.43900
C794        C  0.79334968  0.46755714  0.97258546    -0.05200
Co795      Co  0.76267528  0.52526925  0.54228777     0.73800
N796        N  0.87385939  0.60681009  0.59105888    -0.45400
C797        C  0.70984014  0.58316262  0.90164231     0.44100
N798        N  0.66945177  0.47621240  0.52986008    -0.45300
Co799      Co  0.82278488  0.63206589  0.54452889     0.73900
C800        C  0.78656373  0.68982619  0.52957358    -0.05700
C801        C  0.87101695  0.60245348  0.91253336    -0.05200
N802        N  0.70568039  0.49884560  0.98774424    -0.24800
N803        N  0.91515531  0.68099688  0.97673184    -0.45500
H804        H  0.76026341  0.65202834  0.90745950     0.08100
C805        C  0.71202440  0.54571842  0.59015536    -0.05600
Cl806      Cl  0.79169228  0.57958983  0.49909906    -0.48600
C807        C  0.87146804  0.57172996  0.60338709     0.43900
H808        H  0.65638465  0.47311275  0.95059309     0.08100
N809        N  0.74975602  0.61585147  0.59351620    -0.45400
C810        C  0.65283242  0.19521766  0.49517238     0.43700
N811        N  0.71572942  0.22271911  0.51050305     0.02600
C812        C  0.87735679  0.25517426  0.91023058    -0.05300
H813        H  0.75219747  0.09784499  0.90746741     0.08100
C814        C  0.77412811  0.09097834  0.53752322    -0.05600
Co815      Co  0.76807786  0.23293155  0.95524605     0.74200
N816        N  0.76480628  0.15521332  0.93198172    -0.24800
Co817      Co  0.82096825  0.17951525  0.95879397     0.74100
C818        C  0.77129811  0.06303809  0.00543244     0.43800
N819        N  0.75707041  0.16895281  0.57372094     0.02200
N820        N  0.79776596  0.12590210  0.98875713     0.02300
N821        N  0.84045923  0.28789654  0.90977536    -0.45600
H822        H  0.66492625  0.19035537  0.94386816     0.08100
N823        N  0.74525418  0.17630673  0.93116789     0.02600
N824        N  0.87595503  0.20507200  0.98668246     0.02400
C825        C  0.93696827  0.23357687  0.50771405     0.44000
N826        N  0.74147601  0.19319309  0.56827231    -0.24200
C827        C  0.80796363  0.32779430  0.96872661    -0.05200
N828        N  0.67810567  0.20903289  0.52237276    -0.45300
N829        N  0.91352117  0.22164277  0.97356549    -0.45600
C830        C  0.82660206  0.36080733  0.49382686     0.43800
N831        N  0.82302580  0.25447067  0.92923729     0.02600
N832        N  0.82112115  0.26684911  0.56924583    -0.24300
N833        N  0.71327316  0.21075843  0.98180938    -0.24800
N834        N  0.83919474  0.24481736  0.57422140     0.02300
H835        H  0.82921434  0.32333695  0.59101007     0.08100
H836        H  0.91905332  0.23136787  0.56416977     0.08200
N837        N  0.84367806  0.23447937  0.93006000    -0.24800
N838        N  0.79118675  0.12951604  0.52473792    -0.24400
N839        N  0.79697045  0.29793402  0.51019887     0.02600
C840        C  0.70802384  0.12336780  0.89973058     0.44000
C841        C  0.70715949  0.18031262  0.58603397    -0.05700
N842        N  0.87180724  0.20659736  0.52495240    -0.24400
H843        H  0.76907053  0.08289322  0.56426966     0.08200
N844        N  0.71156079  0.15859535  0.91218754    -0.45600
H845        H  0.68920463  0.19556759  0.58747675     0.08200
C846        C  0.87111516  0.29775544  0.60738737     0.43900
C847        C  0.67444360  0.19445604  0.97034156    -0.05200
Co848      Co  0.76883490  0.24557545  0.53965049     0.73800
N849        N  0.73419894  0.13903092  0.59601807    -0.45400
C850        C  0.87504536  0.29070098  0.89698239     0.44100
N851        N  0.81329848  0.33638109  0.52147046    -0.45300
Co852      Co  0.81508918  0.18660624  0.55020186     0.73900
C853        C  0.91049797  0.22454393  0.53756818    -0.05700
C854        C  0.74341700  0.12084031  0.91265154    -0.05200
N855        N  0.79179569  0.28913275  0.98071068    -0.24800
N856        N  0.78176422  0.08724309  0.97747487    -0.45500
H857        H  0.90022950  0.24630917  0.90543034     0.08100
C858        C  0.83911254  0.30078880  0.58884433    -0.05600
Cl859      Cl  0.79412593  0.21263444  0.50086585    -0.48600
C860        C  0.70198440  0.14476202  0.60406271     0.43900
H861        H  0.81084716  0.33647295  0.94212989     0.08100
N862        N  0.86940179  0.26217707  0.59719989    -0.45400
C863        C  0.36088813  0.81685365  0.50185464     0.43700
N864        N  0.29732808  0.78973195  0.51510796     0.02600
C865        C  0.13000254  0.74521219  0.90995489    -0.05300
H866        H  0.25063463  0.90181812  0.90473430     0.08100
C867        C  0.22609726  0.91091205  0.53320970    -0.05600
Co868      Co  0.24127516  0.77016749  0.95330976     0.74200
N869        N  0.24094282  0.84606558  0.93018937    -0.24800
Co870      Co  0.18537959  0.82064312  0.95807504     0.74100
C871        C  0.23436992  0.93757764  0.00254153     0.43800
N872        N  0.24506698  0.83872219  0.57301274     0.02200
N873        N  0.20815999  0.87433401  0.98736839     0.02300
N874        N  0.16876686  0.71444781  0.90793797    -0.45600
H875        H  0.34526824  0.81343600  0.94175588     0.08100
N876        N  0.26186888  0.82633385  0.92947482     0.02600
N877        N  0.13100678  0.79411296  0.98713216     0.02400
C878        C  0.06854550  0.76144099  0.49843003     0.44000
N879        N  0.26441296  0.81762524  0.56995482    -0.24200
C880        C  0.20420145  0.67576892  0.96529097    -0.05200
N881        N  0.33457245  0.80390650  0.52831537    -0.45300
N882        N  0.09254228  0.77560118  0.97527309    -0.45600
C883        C  0.19338040  0.64792703  0.49726229     0.43800
N884        N  0.18543722  0.74727895  0.92818177     0.02600
N885        N  0.18775208  0.73991645  0.56808986    -0.24300
N886        N  0.29701738  0.79348033  0.97949743    -0.24800
N887        N  0.16648862  0.75910175  0.57070782     0.02300
H888        H  0.18116044  0.68410793  0.58932831     0.08100
H889        H  0.08366880  0.76582811  0.55573934     0.08200
N890        N  0.16367091  0.76606601  0.92978392    -0.24800
N891        N  0.21041902  0.87237903  0.52068241    -0.24400
N892        N  0.21943417  0.71087565  0.51293837     0.02600
C893        C  0.29670897  0.87857543  0.89695877     0.44000
C894        C  0.29806254  0.83450379  0.58937148    -0.05700
N895        N  0.13283067  0.79253376  0.51855782    -0.24400
H896        H  0.23017210  0.91947439  0.55992666     0.08200
N897        N  0.29488231  0.84442115  0.90998496    -0.45600
H898        H  0.31848746  0.82218693  0.59217901     0.08200
C899        C  0.13361891  0.70428455  0.60106714     0.43900
C900        C  0.33588748  0.80964861  0.96819899    -0.05200
Co901      Co  0.24242406  0.76429092  0.54181648     0.73800
N902        N  0.26435238  0.87024092  0.59494003    -0.45400
C903        C  0.13363809  0.71101065  0.89570869     0.44100
N904        N  0.20465147  0.67287379  0.52477857    -0.45300
Co905      Co  0.18821985  0.81636607  0.54650161     0.73900
C906        C  0.09350371  0.77257906  0.52946073    -0.05700
C907        C  0.26073468  0.87989232  0.91014068    -0.05200
N908        N  0.21950460  0.71409195  0.97804182    -0.24800
N909        N  0.22280316  0.91225151  0.97523110    -0.45500
H910        H  0.10679166  0.75371034  0.90529084     0.08100
C911        C  0.16950648  0.70511494  0.58622901    -0.05600
Cl912      Cl  0.21536828  0.79256721  0.49997816    -0.48600
C913        C  0.29836424  0.86937326  0.60601918     0.43900
H914        H  0.20100752  0.66752878  0.93852437     0.08100
N915        N  0.13366375  0.73886681  0.59062804    -0.45400
C916        C  0.58060086  0.87009126  0.90296663     0.43700
N917        N  0.60298700  0.83802693  0.93393763     0.02600
C918        C  0.48116554  0.67424995  0.53483645    -0.05300
H919        H  0.47877613  0.81023637  0.56414967     0.08100
C920        C  0.62825236  0.87555710  0.59674692    -0.05600
Co921      Co  0.53151356  0.76334385  0.96475106     0.74200
N922        N  0.50708868  0.79215482  0.52493501    -0.24800
Co923      Co  0.53909946  0.76779575  0.54976485     0.74100
C924        C  0.59041153  0.87260763  0.61067121     0.43800
N925        N  0.67702856  0.87400284  0.51784798     0.02200
N926        N  0.57407930  0.82268974  0.57558263     0.02300
N927        N  0.47749295  0.67178212  0.98166450    -0.45600
H928        H  0.51303611  0.82296652  0.91624750     0.08100
N929        N  0.50286242  0.78888460  0.99258438     0.02600
N930        N  0.57178328  0.74410607  0.57397526     0.02400
C931        C  0.58645545  0.70754624  0.60678363     0.44000
N932        N  0.67241848  0.87158371  0.98508001    -0.24200
C933        C  0.54408700  0.70491228  0.91771585    -0.05200
N934        N  0.61538455  0.87038449  0.91324093    -0.45300
N935        N  0.55515170  0.71113027  0.59386095    -0.45600
C936        C  0.57881088  0.70478429  0.90125241     0.43800
N937        N  0.50135349  0.70987622  0.99344983     0.02600
N938        N  0.67065524  0.79210043  0.98492980    -0.24300
N939        N  0.56247612  0.81691933  0.93707320    -0.24800
N940        N  0.67443908  0.79363778  0.51561498     0.02300
H941        H  0.69471375  0.76903101  0.94590958     0.08100
H942        H  0.65645916  0.75093771  0.59872084     0.08200
N943        N  0.50477254  0.71291818  0.52320169    -0.24800
N944        N  0.61486386  0.84295186  0.57515441    -0.24400
N945        N  0.60165455  0.75845719  0.93374439     0.02600
C946        C  0.46858544  0.81799227  0.50735745     0.44000
C947        C  0.69384801  0.91038968  0.97295314    -0.05700
N948        N  0.61249859  0.76316506  0.57311008    -0.24400
H949        H  0.66017050  0.89741485  0.60296660     0.08200
N950        N  0.47951606  0.80288188  0.97991601    -0.45600
H951        H  0.69687631  0.91918782  0.94638544     0.08200
C952        C  0.70839981  0.76463246  0.49841903     0.43900
C953        C  0.54578068  0.83466181  0.91874020    -0.05200
Co954      Co  0.63797642  0.81561441  0.95871840     0.73800
N955        N  0.69916310  0.91207508  0.53055907    -0.45400
C956        C  0.46393079  0.64928879  0.50425510     0.44100
N957        N  0.61367480  0.73910040  0.91216756    -0.45300
Co958      Co  0.64584073  0.81896861  0.54596977     0.73900
C959        C  0.62480928  0.74217123  0.59324018    -0.05700
C960        C  0.48446633  0.80774819  0.53744413    -0.05200
N961        N  0.56116217  0.73906353  0.93700623    -0.24800
N962        N  0.55845616  0.83904155  0.59636098    -0.45500
H963        H  0.47589000  0.66511322  0.56134589     0.08100
C964        C  0.69138338  0.77422210  0.97257713    -0.05600
Cl965      Cl  0.58975547  0.79321095  0.50362620    -0.48600
C966        C  0.71041603  0.93638950  0.00318701     0.43900
H967        H  0.51124800  0.68418465  0.91459082     0.08100
N968        N  0.69603841  0.77651806  0.52653031    -0.45400
C969        C  0.19132369  0.53957709  0.49985718     0.43700
N970        N  0.21668419  0.50264062  0.51613963     0.02600
C971        C  0.26280570  0.37932608  0.91090971    -0.05300
H972        H  0.10864539  0.35054392  0.90029515     0.08100
C973        C  0.09048372  0.31218317  0.53608343    -0.05600
Co974      Co  0.24105513  0.46830603  0.95368850     0.74200
N975        N  0.16473876  0.39453560  0.92680175    -0.24800
Co976      Co  0.18554711  0.36106971  0.95588798     0.74100
C977        C  0.06601066  0.29758947  0.99729715     0.43800
N978        N  0.16412552  0.40117881  0.57510480     0.02200
N979        N  0.12981157  0.33121928  0.98316038     0.02300
N980        N  0.29707401  0.44951602  0.91114646    -0.45600
H981        H  0.20233647  0.53125735  0.93850196     0.08100
N982        N  0.18665124  0.43547836  0.92633748     0.02600
N983        N  0.20787029  0.32999083  0.98588839     0.02400
C984        C  0.23489991  0.29491219  0.50598915     0.44000
N985        N  0.18547074  0.44193707  0.57229086    -0.24200
C986        C  0.33428804  0.52293655  0.97187621    -0.05200
N987        N  0.20294656  0.52680762  0.52764769    -0.45300
N988        N  0.22503669  0.30868605  0.97451006    -0.45600
C989        C  0.35697304  0.53988751  0.50185794     0.43800
N990        N  0.26326546  0.43396241  0.92987367     0.02600
N991        N  0.26217858  0.44115105  0.57293626    -0.24300
N992        N  0.21790073  0.50147072  0.97825561    -0.24800
N993        N  0.24211638  0.40036006  0.57558314     0.02300
H994        H  0.31776929  0.49012790  0.59524085     0.08100
H995        H  0.23062610  0.30796129  0.56272327     0.08200
N996        N  0.24230697  0.39299306  0.93010301    -0.24800
N997        N  0.12908234  0.33257439  0.52371425    -0.24400
N998        N  0.29413424  0.50183218  0.51698629     0.02600
C999        C  0.13630740  0.42099055  0.89234852     0.44000
C1000       C  0.16755934  0.45841359  0.59088031    -0.05700
N1001       N  0.20690883  0.33155277  0.52389220    -0.24400
H1002       H  0.08209546  0.30911895  0.56274326     0.08200
N1003       N  0.17095065  0.45236133  0.90613805    -0.45600
H1004       H  0.17942368  0.49131334  0.59398707     0.08200
C1005       C  0.29555966  0.42166648  0.60779572     0.43900
C1006       C  0.20372875  0.52508631  0.96527803    -0.05200
Co1007     Co  0.23989816  0.47247172  0.54497913     0.73800
N1008       N  0.13178172  0.38839614  0.59563433    -0.45400
C1009       C  0.29915010  0.41704976  0.89848564     0.44100
N1010       N  0.33177998  0.52656798  0.52911706    -0.45300
Co1011     Co  0.18508848  0.36538342  0.55020021     0.73900
C1012       C  0.22478395  0.31081443  0.53612259    -0.05700
C1013       C  0.13197312  0.38232178  0.90586398    -0.05200
N1014       N  0.29498183  0.50029602  0.98203181    -0.24800
N1015       N  0.09183186  0.31043299  0.97029035    -0.45500
H1016       H  0.25279386  0.34718866  0.90538468     0.08100
C1017       C  0.29620945  0.45730115  0.59211750    -0.05600
Cl1018     Cl  0.21115005  0.41586640  0.50329682    -0.48600
C1019       C  0.13180793  0.42297008  0.60629903     0.43900
H1020       H  0.34485002  0.52874275  0.94573431     0.08100
N1021       N  0.26099970  0.38722194  0.59657128    -0.45400
C1022       C  0.42913761  0.13297790  0.89471650     0.43700
N1023       N  0.40690014  0.16287760  0.92867683     0.02600
C1024       C  0.52543538  0.32675807  0.53686310    -0.05300
H1025       H  0.53257463  0.19017573  0.55935347     0.08100
C1026       C  0.38373852  0.12152376  0.59304367    -0.05600
Co1027     Co  0.47781354  0.23658951  0.96196217     0.74200
N1028       N  0.50328356  0.20975875  0.52223117    -0.24800
Co1029     Co  0.47125772  0.23223634  0.54937859     0.74100
C1030       C  0.42178054  0.12381181  0.60573503     0.43800
N1031       N  0.33392331  0.12615680  0.51655960     0.02200
N1032       N  0.43748992  0.17607837  0.57373879     0.02300
N1033       N  0.52937486  0.32817442  0.98105774    -0.45600
H1034       H  0.49680005  0.17891703  0.90938420     0.08100
N1035       N  0.50578469  0.21056965  0.99010643     0.02600
N1036       N  0.43855161  0.25425634  0.57570579     0.02400
C1037       C  0.42418529  0.29063100  0.60910489     0.44000
N1038       N  0.33710143  0.12821688  0.97970632    -0.24200
C1039       C  0.46639795  0.29575524  0.91517891    -0.05200
N1040       N  0.39450986  0.13220596  0.90598996    -0.45300
N1041       N  0.45535970  0.28728180  0.59574595    -0.45600
C1042       C  0.43209108  0.29631203  0.89824073     0.43800
N1043       N  0.50691050  0.28958438  0.99200800     0.02600
N1044       N  0.33904338  0.20757014  0.98113913    -0.24300
N1045       N  0.44742001  0.18358958  0.93237961    -0.24800
N1046       N  0.33511630  0.20535375  0.51786866     0.02300
H1047       H  0.31558490  0.23187934  0.94268907     0.08100
H1048       H  0.35407083  0.24717035  0.60094117     0.08200
N1049       N  0.50375712  0.28820962  0.52424878    -0.24800
N1050       N  0.39670678  0.15548584  0.57336458    -0.24400
N1051       N  0.40840345  0.24240487  0.93031978     0.02600
C1052       C  0.54157769  0.18502866  0.50184949     0.44000
C1053       C  0.31485230  0.08958568  0.96705027    -0.05700
N1054       N  0.39783953  0.23496951  0.57499974    -0.24400
H1055       H  0.35191369  0.09884282  0.59854230     0.08200
N1056       N  0.52932193  0.19654340  0.97791219    -0.45600
H1057       H  0.31129935  0.08103005  0.94034491     0.08200
C1058       C  0.30020029  0.23391757  0.50295708     0.43900
C1059       C  0.46406079  0.16704691  0.91226315    -0.05200
Co1060     Co  0.37177733  0.18468237  0.95428198     0.73800
N1061       N  0.31150948  0.08779986  0.52821433    -0.45400
C1062       C  0.53988342  0.35291430  0.50688438     0.44100
N1063       N  0.39690719  0.26207796  0.90861093    -0.45300
Co1064     Co  0.36475296  0.17994329  0.54630644     0.73900
C1065       C  0.38567346  0.25580642  0.59556553    -0.05700
C1066       C  0.52630546  0.19383600  0.53303488    -0.05200
N1067       N  0.44884088  0.26151160  0.93413251    -0.24800
N1068       N  0.45354809  0.15854390  0.59275620    -0.45500
H1069       H  0.53048499  0.33525418  0.56357366     0.08100
C1070       C  0.31857738  0.22587672  0.96921539    -0.05600
Cl1071     Cl  0.41972450  0.20786598  0.50347609    -0.48600
C1072       C  0.29770947  0.06348853  0.99703097     0.43900
H1073       H  0.49932002  0.31624669  0.91250556     0.08100
N1074       N  0.31345371  0.22167084  0.53020268    -0.45400
C1075       C  0.27665531  0.25483650  0.50447647    -0.12000
C1076       C  0.25735365  0.27284440  0.50497850    -0.13600
C1077       C  0.42919556  0.60820451  0.50314245    -0.12000
C1078       C  0.39738823  0.57557901  0.50262013    -0.13600
C1079       C  0.25528347  0.98189175  0.00047393    -0.12000
C1080       C  0.27404203  0.01912843  0.99833156    -0.13600
C1081       C  0.18602328  0.60667318  0.49848296    -0.12000
C1082       C  0.18540381  0.57431726  0.49971652    -0.13600
C1083       C  0.43397039  0.82408652  0.50630991    -0.12000
C1084       C  0.40185630  0.82373885  0.50427108    -0.13600
C1085       C  0.73283170  0.98100826  0.00445919    -0.12000
C1086       C  0.75081177  0.01845764  0.00494907    -0.13600
C1087       C  0.98172304  0.25560229  0.50655158    -0.12000
C1088       C  0.01919853  0.27424632  0.50559481    -0.13600
C1089       C  0.57733709  0.18119812  0.49924414    -0.12000
C1090       C  0.61069597  0.18455276  0.49653651    -0.13600
C1091       C  0.02395466  0.73702136  0.49577536    -0.12000
C1092       C  0.98652816  0.71662318  0.49498627    -0.13600
C1093       C  0.75282695  0.72681879  0.49821229    -0.12000
C1094       C  0.73275728  0.74421546  0.49838762    -0.13600
C1095       C  0.82277816  0.42810539  0.49551902    -0.12000
C1096       C  0.82941645  0.40005688  0.49405907    -0.13600
C1097       C  0.57157157  0.39530825  0.50632373    -0.12000
C1098       C  0.60212167  0.42881842  0.50555863    -0.13600
C1099       C  0.43017297  0.32221738  0.63489962    -0.15200
C1100       C  0.46853793  0.35050673  0.64547976    -0.30300
H1101       H  0.40328250  0.32159640  0.64579785     0.13900
H1102       H  0.49514756  0.35058508  0.63451226     0.14400
C1103       C  0.47249139  0.35413730  0.85907552    -0.15200
C1104       C  0.43523186  0.32492168  0.87068360    -0.30300
H1105       H  0.50041463  0.35734306  0.87027756     0.13900
H1106       H  0.40714095  0.32108403  0.85914864     0.14400
C1107       C  0.65802462  0.54585834  0.64617857    -0.15200
C1108       C  0.68757541  0.58231880  0.63314590    -0.30300
H1109       H  0.65438051  0.51691429  0.63677952     0.13900
H1110       H  0.69226917  0.61156522  0.64309626     0.14400
C1111       C  0.68164485  0.58068785  0.87429834    -0.15200
C1112       C  0.65421569  0.54365537  0.86074196    -0.30300
H1113       H  0.68472616  0.60921523  0.86430031     0.13900
H1114       H  0.65243419  0.51549768  0.87031939     0.14400
C1115       C  0.54297086  0.64967194  0.64471406    -0.15200
C1116       C  0.58104027  0.67719540  0.63338075    -0.30300
H1117       H  0.51611330  0.64901604  0.63356589     0.13900
H1118       H  0.60817573  0.67836211  0.64442973     0.14400
C1119       C  0.53942910  0.64702342  0.86159220    -0.15200
C1120       C  0.57640287  0.67659353  0.87353844    -0.30300
H1121       H  0.51127375  0.64307409  0.87276640     0.13900
H1122       H  0.60473206  0.68115019  0.86207108     0.14400
C1123       C  0.35382644  0.45945846  0.64711797    -0.15200
C1124       C  0.32452374  0.42286692  0.63410638    -0.30300
H1125       H  0.35630270  0.48815212  0.63837003     0.13900
H1126       H  0.32101527  0.39389986  0.64345483     0.14400
C1127       C  0.32937257  0.42074046  0.87254525    -0.15200
C1128       C  0.35652101  0.45798774  0.85935139    -0.30300
H1129       H  0.32800404  0.39266539  0.86320303     0.13900
H1130       H  0.35687051  0.48568673  0.86844624     0.14400
C1131       C  0.89798689  0.57007299  0.63090355    -0.15200
C1132       C  0.88891431  0.53371037  0.64536513    -0.30300
H1133       H  0.92411703  0.59888994  0.64010654     0.13900
H1134       H  0.86223252  0.50517551  0.63651657     0.14400
C1135       C  0.88120456  0.54541780  0.87695693    -0.15200
C1136       C  0.91349851  0.56926780  0.85736895    -0.30300
H1137       H  0.86643419  0.51192676  0.87432616     0.13900
H1138       H  0.92864650  0.60282507  0.85954592     0.14400
C1139       C  0.89650724  0.32457361  0.63591835    -0.15200
C1140       C  0.88839747  0.35259215  0.65015557    -0.30300
H1141       H  0.92108854  0.32030088  0.64594788     0.13900
H1142       H  0.86273538  0.35557622  0.64096501     0.14400
C1143       C  0.89514973  0.35273776  0.86179280    -0.15200
C1144       C  0.90292755  0.32302888  0.87261378    -0.30300
H1145       H  0.86836456  0.35337770  0.87146123     0.13900
H1146       H  0.92928872  0.32168148  0.86291187     0.14400
C1147       C  0.10450998  0.42452297  0.63287974    -0.15200
C1148       C  0.10979647  0.46136749  0.64286812    -0.30300
H1149       H  0.08198263  0.39610819  0.64539444     0.13900
H1150       H  0.13272895  0.48950547  0.63037935     0.14400
C1151       C  0.12092383  0.46518651  0.85600313    -0.15200
C1152       C  0.11048097  0.42682332  0.86682033    -0.30300
H1153       H  0.14830525  0.49204430  0.86634576     0.13900
H1154       H  0.08348022  0.39966698  0.85639760     0.14400
C1155       C  0.10603773  0.67501645  0.62704814    -0.15200
C1156       C  0.11321096  0.64571107  0.63955771    -0.30300
H1157       H  0.08126005  0.67891297  0.63708964     0.13900
H1158       H  0.13863475  0.64259649  0.63010892     0.14400
C1159       C  0.11930543  0.65573547  0.85490553    -0.15200
C1160       C  0.10813622  0.68145112  0.86897594    -0.30300
H1161       H  0.14674909  0.65575980  0.86389676     0.13900
H1162       H  0.08104144  0.68203060  0.85999562     0.14400
C1163       C  0.32741750  0.89500145  0.63356305    -0.15200
C1164       C  0.35592567  0.88591242  0.64514132    -0.30300
H1165       H  0.32465482  0.92002134  0.64497228     0.13900
H1166       H  0.35800912  0.86038047  0.63424428     0.14400
C1167       C  0.32689075  0.90416810  0.87046929    -0.15200
C1168       C  0.35514490  0.89425291  0.86028217    -0.30300
H1169       H  0.32486367  0.92928419  0.85847851     0.13900
H1170       H  0.35628313  0.86870576  0.87242281     0.14400
C1171       C  0.58543451  0.89675346  0.63836714    -0.15200
C1172       C  0.54761799  0.88505434  0.65115081    -0.30300
H1173       H  0.61286549  0.92346063  0.64872210     0.13900
H1174       H  0.52052311  0.85783501  0.64088561     0.14400
C1175       C  0.57793020  0.89712823  0.87680966    -0.15200
C1176       C  0.54082989  0.88898312  0.86467796    -0.30300
H1177       H  0.60631474  0.92247069  0.86652820     0.13900
H1178       H  0.51258348  0.86295861  0.87429566     0.14400
C1179       C  0.66907460  0.12450584  0.62960757    -0.15200
C1180       C  0.66367597  0.09411915  0.65035884    -0.30300
H1181       H  0.64823493  0.13663129  0.63170519     0.13900
H1182       H  0.68356773  0.08086808  0.64850805     0.14400
C1183       C  0.67731389  0.09768575  0.87354560    -0.15200
C1184       C  0.65105085  0.10922231  0.86126295    -0.30300
H1185       H  0.67753708  0.07074876  0.86325419     0.13900
H1186       H  0.65163615  0.13664784  0.87135514     0.14400
C1187       C  0.46454074  0.10675303  0.64260379    -0.15200
C1188       C  0.42673654  0.09718843  0.63103811    -0.30300
H1189       H  0.49183064  0.13397909  0.63282423     0.13900
H1190       H  0.39914690  0.07046961  0.64094765     0.14400
C1191       C  0.46765818  0.11511777  0.85355849    -0.15200
C1192       C  0.43110813  0.10681090  0.86698792    -0.30300
H1193       H  0.49610841  0.14151172  0.86276477     0.13900
H1194       H  0.40242206  0.08120237  0.85716238     0.14400
loop_ 
_geom_bond_atom_site_label_1 
_geom_bond_atom_site_label_2 
_geom_bond_distance 
_geom_bond_site_symmetry_2 
_ccdc_geom_bond_type 
C1           N19   1.350       .  A
C1           C38   1.457       .  S
C1          C594   1.470       .  S
N2           N19   1.323       .  A
N2           N24   1.320       .  A
N2          Co39   2.094       .  S
C3           N28   1.339       .  A
C3           C41   1.459       .  S
C3           H48   1.081       .  S
H4           C45   1.081       .  S
C5           N29   1.344       .  A
C5            C9   1.459       .  S
C5           H34   1.081       .  S
Co6          N24   2.075   1_565  S
Co6          N14   2.074       .  S
Co6          N46   2.073   1_565  S
Co6          N22   2.075       .  S
Co6         Cl50   2.467   1_565  S
N7           C45   1.341       .  A
N7           N14   1.321       .  A
N7           Co8   2.096       .  S
Co8          N11   2.096       .  S
Co8          N28   2.096       .  S
Co8          N15   2.100       .  S
Co8         Cl50   2.437   1_565  S
C9           N47   1.350       .  A
C9          C579   1.473       .  S
N10          N17   1.321       .  A
N10          N40   1.325       .  A
N10         Co43   2.072       .  S
N11          N29   1.320       .  A
N11          N47   1.324       .  A
N12          C41   1.347       .  A
N12          N22   1.327       .  A
H13          C38   1.082       .  S
N14          N35   1.325       .  A
N15          N33   1.320       .  A
N15          N20   1.325       .  A
C16          N20   1.352       .  A
C16          C44   1.456       .  S
C16         C575   1.471       .  S
N17          C32   1.341       .  A
N17         Co39   2.096       .  S
C18          N46   1.341       .  A
C18          C21   1.457       .  S
C18          H52   1.081       .  S
C21          N42   1.353       .  A
C21         C590   1.475       .  S
N22          N28   1.321       .  A
N23          C49   1.339       .  A
N23          N25   1.321       .  A
N23         Co39   2.093       .  S
N24          C38   1.342       .  A
N25          N53   1.327       .  A
N25         Co43   2.078       .  S
H26          C49   1.082       .  S
H27          C44   1.081       .  S
N29         Co43   2.079   1_565  S
N30          N42   1.326       .  A
N30          N46   1.320       .  A
N30         Co39   2.102       .  S
C31          N35   1.347       .  A
C31          C45   1.459       .  S
C31         C571   1.470       .  S
C32          C51   1.459       .  S
C32          H36   1.081       .  S
N33          C44   1.340       .  A
N33         Co43   2.070   1_565  S
C37          N53   1.348       .  A
C37          C49   1.458       .  S
C37         C583   1.470       .  S
Co39        Cl50   2.437       .  S
N40          C51   1.346       .  A
C41         C567   1.471       .  S
Co43        Cl50   2.468       .  S
C51         C587   1.470       .  S
C54          N72   1.351       .  A
C54          C91   1.455       .  S
C54         C562   1.471       .  S
N55          N72   1.325       .  A
N55          N77   1.319       .  A
N55         Co92   2.088       .  S
C56          N81   1.338       .  A
C56          C94   1.454       .  S
C56         H101   1.081       .  S
H57          C98   1.081       .  S
C58          N82   1.341       .  A
C58          C62   1.456       .  S
C58          H87   1.081       .  S
Co59         N77   2.075       .  S
Co59         N67   2.050   1_455  S
Co59         N99   2.059       .  S
Co59         N75   2.086   1_455  S
Co59       Cl103   2.458       .  S
N60          C98   1.349       .  A
N60          N67   1.320       .  A
N60         Co61   2.121       .  S
Co61         N64   2.101       .  S
Co61         N81   2.088       .  S
Co61         N68   2.103       .  S
Co61       Cl103   2.444   1_655  S
C62         N100   1.353       .  A
C62         C546   1.474       .  S
N63          N70   1.321       .  A
N63          N93   1.326       .  A
N63         Co96   2.079       .  S
N64          N82   1.322       .  A
N64         N100   1.325       .  A
N65          C94   1.351       .  A
N65          N75   1.328       .  A
H66          C91   1.081       .  S
N67          N88   1.320       .  A
N68          N86   1.321       .  A
N68          N73   1.325       .  A
C69          N73   1.351       .  A
C69          C97   1.457       .  S
C69         C543   1.473       .  S
N70          C85   1.343       .  A
N70         Co92   2.100       .  S
C71          N99   1.339       .  A
C71          C74   1.455       .  S
C71         H105   1.081       .  S
C74          N95   1.350       .  A
C74         C559   1.466       .  S
N75          N81   1.321       .  A
N76         C102   1.334       .  A
N76          N78   1.320       .  A
N76         Co92   2.074       .  S
N77          C91   1.338       .  A
N78         N106   1.330       .  A
N78         Co96   2.092       .  S
H79         C102   1.081       .  S
H80          C97   1.081       .  S
N82         Co96   2.080   1_655  S
N83          N95   1.323       .  A
N83          N99   1.318       .  A
N83         Co92   2.095       .  S
C84          N88   1.337       .  A
C84          C98   1.478       .  S
C84         C539   1.478       .  S
C85         C104   1.462       .  S
C85          H89   1.082       .  S
N86          C97   1.341       .  A
N86         Co96   2.074   1_655  S
C90         N106   1.352       .  A
C90         C102   1.449       .  S
C90         C551   1.468       .  S
Co92       Cl103   2.441       .  S
N93         C104   1.348       .  A
C94         C535   1.472       .  S
Co96       Cl103   2.464       .  S
C104        C554   1.477       .  S
C107        N125   1.351       .  A
C107        C144   1.459       .  S
C107        C531   1.475       .  S
N108        N125   1.325       .  A
N108        N130   1.321       .  A
N108       Co145   2.099       .  S
C109        N134   1.340       .  A
C109        C147   1.457       .  S
C109        H154   1.082       .  S
H110        C151   1.082       .  S
C111        N135   1.339       .  A
C111        C115   1.455       .  S
C111        H140   1.081       .  S
Co112       N130   2.081       .  S
Co112       N120   2.083       .  S
Co112       N152   2.080       .  S
Co112       N128   2.087       .  S
Co112      Cl156   2.471       .  S
N113        C151   1.338       .  A
N113        N120   1.321       .  A
N113       Co114   2.088       .  S
Co114       N117   2.092       .  S
Co114       N134   2.092       .  S
Co114       N121   2.093       .  S
Co114      Cl156   2.433       .  S
C115        N153   1.350       .  A
C115        C515   1.465       .  S
N116        N123   1.320       .  A
N116        N146   1.327       .  A
N116       Co149   2.076       .  S
N117        N135   1.319       .  A
N117        N153   1.324       .  A
N118        C147   1.350       .  A
N118        N128   1.328       .  A
H119        C144   1.081       .  S
N120        N141   1.328       .  A
N121        N139   1.320       .  A
N121        N126   1.322       .  A
C122        N126   1.350       .  A
C122        C150   1.456       .  S
C122        C510   1.467       .  S
N123        C138   1.339       .  A
N123       Co145   2.090       .  S
C124        N152   1.343       .  A
C124        C127   1.459       .  S
C124        H158   1.082       .  S
C127        N148   1.348       .  A
C127        C526   1.469       .  S
N128        N134   1.321       .  A
N129        C155   1.342       .  A
N129        N131   1.321       .  A
N129       Co145   2.102       .  S
N130        C144   1.342       .  A
N131        N159   1.324       .  A
N131       Co149   2.068       .  S
H132        C155   1.081       .  S
H133        C150   1.082       .  S
N135       Co149   2.065       .  S
N136        N148   1.322       .  A
N136        N152   1.321       .  A
N136       Co145   2.089       .  S
C137        N141   1.349       .  A
C137        C151   1.455       .  S
C137        C506   1.471       .  S
C138        C157   1.457       .  S
C138        H142   1.082       .  S
N139        C150   1.343       .  A
N139       Co149   2.072       .  S
C143        N159   1.346       .  A
C143        C155   1.462       .  S
C143        C518   1.472       .  S
Co145      Cl156   2.435       .  S
N146        C157   1.348       .  A
C147        C503   1.475       .  S
Co149      Cl156   2.470       .  S
C157        C522   1.469       .  S
C160        N178   1.346       .  A
C160        C794   1.445   1_554  S
C160        C498   1.419       .  S
N161        N178   1.323       .  A
N161        N780   1.317   1_554  A
N161       Co198   2.067       .  S
C162        N187   1.347       .  A
C162        C200   1.465       .  S
C162        H207   1.082       .  S
H163        C204   1.081       .  S
C164        N188   1.343       .  A
C164        C765   1.456       .  S
C164        H193   1.082       .  S
Co165       N183   2.062       .  S
Co165       N173   2.036       .  S
Co165       N205   2.051       .  S
Co165       N181   2.051       .  S
Co165      Cl806   2.439       .  S
N166        C204   1.357       .  A
N166        N173   1.319       .  A
N166       Co167   2.134       .  S
Co167       N170   2.105       .  S
Co167       N187   2.103       .  S
Co167       N174   2.115       .  S
Co167      Cl806   2.461       .  S
C168        N206   1.352       .  A
C168        C761   1.455       .  S
C168       C1092   1.448       .  S
N169        N176   1.319       .  A
N169        N199   1.330       .  A
N169       Co202   2.107       .  S
N170        N206   1.329       .  A
N170        N785   1.325       .  A
N171        C200   1.343       .  A
N171        N181   1.317       .  A
H172        C197   1.081       .  S
N173        N194   1.314       .  A
N174        N179   1.331       .  A
N174        N789   1.324       .  A
C175        N776   1.353   1_554  A
C175        C203   1.457       .  S
C175        C496   1.452       .  S
N176        C191   1.334       .  A
N176       Co198   2.068       .  S
C177        N205   1.336       .  A
C177        C777   1.451       .  S
C177        H211   1.082       .  S
N179        C772   1.353       .  A
C180        N201   1.347       .  A
C180        C774   1.451   1_554  S
C180        C501   1.419       .  S
N181        N187   1.319       .  A
N182        C208   1.327       .  A
N182        N184   1.317       .  A
N182       Co198   2.046       .  S
N183        C197   1.336       .  A
N183        N758   1.317       .  A
N184        N212   1.333       .  A
N184       Co202   2.117       .  S
H185        C208   1.080       .  S
H186        C203   1.081       .  S
N188        N767   1.324   1_554  A
N188       Co202   2.098       .  S
N189        N201   1.322       .  A
N189        N802   1.315   1_554  A
N189       Co198   2.076       .  S
C190        N194   1.331       .  A
C190        C204   1.482       .  S
C190        C538   1.473       .  S
C191        C210   1.458       .  S
C191        H195   1.081       .  S
N192        C203   1.344       .  A
N192        N771   1.324   1_554  A
N192       Co202   2.096       .  S
C196        N212   1.360       .  A
C196        C208   1.450       .  S
C196        C511   1.483       .  S
C197        C757   1.442       .  S
Co198      Cl209   2.441       .  S
N199        C210   1.356       .  A
C200        C514   1.471       .  S
Co202      Cl209   2.457       .  S
N205        N786   1.315       .  A
Cl209      Co762   2.437   1_554  S
Cl209      Co764   2.459   1_554  S
C210        C534   1.483       .  S
C213        N231   1.345       .  A
C213        C847   1.453   1_554  S
C213        C493   1.426       .  S
N214        N231   1.323       .  A
N214        N833   1.316   1_554  A
N214       Co251   2.072       .  S
C215        N240   1.351       .  A
C215        C253   1.471       .  S
C215        H260   1.081       .  S
H216        C257   1.082       .  S
C217        N241   1.341       .  A
C217        C818   1.453       .  S
C217        H246   1.082       .  S
Co218       N236   2.067       .  S
Co218       N226   2.059       .  S
Co218       N258   2.070       .  S
Co218       N234   2.052       .  S
Co218      Cl859   2.449       .  S
N219        C257   1.349       .  A
N219        N226   1.320       .  A
N219       Co220   2.109       .  S
Co220       N223   2.097       .  S
Co220       N240   2.113       .  S
Co220       N227   2.096       .  S
Co220      Cl859   2.452       .  S
C221        N259   1.348       .  A
C221        C814   1.457       .  S
C221        C489   1.442       .  S
N222        N229   1.318       .  A
N222        N252   1.332       .  A
N222       Co255   2.118       .  S
N223        N259   1.326       .  A
N223        N838   1.325       .  A
N224        C253   1.342       .  A
N224        N234   1.318       .  A
H225        C250   1.082       .  S
N226        N247   1.318       .  A
N227        N232   1.327       .  A
N227        N842   1.326       .  A
C228        N829   1.346   1_554  A
C228        C256   1.459       .  S
C228        C490   1.441   1_554  S
N229        C244   1.329       .  A
N229       Co251   2.052       .  S
C230        N258   1.338       .  A
C230        C830   1.456       .  S
C230        H264   1.082       .  S
N232        C825   1.348       .  A
C233        N254   1.343   1_556  A
C233        C827   1.455       .  S
C233        C499   1.418   1_556  S
N234        N240   1.319       .  A
N235        C261   1.334       .  A
N235        N237   1.318       .  A
N235       Co251   2.060       .  S
N236        C250   1.341       .  A
N236        N811   1.315       .  A
N237        N265   1.329       .  A
N237       Co255   2.104       .  S
H238        C261   1.081       .  S
H239        C256   1.081       .  S
N241        N820   1.323   1_554  A
N241       Co255   2.086       .  S
N242        N254   1.320       .  A
N242        N855   1.316   1_554  A
N242       Co251   2.059       .  S
C243        N247   1.343       .  A
C243        C257   1.468       .  S
C243        C586   1.476       .  S
C244        C263   1.452       .  S
C244        H248   1.080       .  S
N245        C256   1.344       .  A
N245        N824   1.324   1_554  A
N245       Co255   2.103       .  S
C249        N265   1.356       .  A
C249        C261   1.454       .  S
C249        C542   1.479       .  S
C250        C810   1.454       .  S
Co251      Cl262   2.433       .  S
N252        C263   1.360       .  A
C253        C547   1.479       .  S
Co255      Cl262   2.461       .  S
N258        N839   1.315       .  A
Cl262      Co815   2.448   1_554  S
Cl262      Co817   2.452   1_554  S
C263        C582   1.484       .  S
C266        N284   1.344   1_556  A
C266        C900   1.459       .  S
C266        C487   1.429   1_556  S
N267        N284   1.321       .  A
N267        N886   1.317   1_554  A
N267       Co304   2.065       .  S
C268        N293   1.344       .  A
C268        C306   1.462       .  S
C268        H313   1.081       .  S
H269        C310   1.082       .  S
C270        N294   1.342       .  A
C270        C871   1.456       .  S
C270        H299   1.082       .  S
Co271       N289   2.074       .  S
Co271       N279   2.059       .  S
Co271       N311   2.071       .  S
Co271       N287   2.064       .  S
Co271      Cl912   2.445       .  S
N272        C310   1.349       .  A
N272        N279   1.320       .  A
N272       Co273   2.111       .  S
Co273       N276   2.088       .  S
Co273       N293   2.093       .  S
Co273       N280   2.099       .  S
Co273      Cl912   2.451       .  S
C274        N312   1.347       .  A
C274        C867   1.453       .  S
C274        C482   1.432       .  S
N275        N282   1.318       .  A
N275        N305   1.333       .  A
N275       Co308   2.117       .  S
N276        N312   1.324       .  A
N276        N891   1.323       .  A
N277        C306   1.345       .  A
N277        N287   1.320       .  A
H278        C303   1.082       .  S
N279        N300   1.318       .  A
N280        N285   1.328       .  A
N280        N895   1.324       .  A
C281        N882   1.350   1_554  A
C281        C309   1.456       .  S
C281        C494   1.446       .  S
N282        C297   1.329       .  A
N282       Co304   2.054       .  S
C283        N311   1.339       .  A
C283        C883   1.454       .  S
C283        H317   1.082       .  S
N285        C878   1.350       .  A
C286        N307   1.346   1_556  A
C286        C880   1.452       .  S
C286        C484   1.425       .  S
N287        N293   1.319       .  A
N288        C314   1.331       .  A
N288        N290   1.318       .  A
N288       Co304   2.054       .  S
N289        C303   1.340       .  A
N289        N864   1.316       .  A
N290        N318   1.328       .  A
N290       Co308   2.099       .  S
H291        C314   1.080       .  S
H292        C309   1.081       .  S
N294        N873   1.323   1_554  A
N294       Co308   2.092       .  S
N295        N307   1.323       .  A
N295        N908   1.317   1_554  A
N295       Co304   2.072       .  S
C296        N300   1.343       .  A
C296        C310   1.469       .  S
C296        C570   1.477       .  S
C297        C316   1.452       .  S
C297        H301   1.080       .  S
N298        C309   1.343       .  A
N298        N877   1.323   1_554  A
N298       Co308   2.096       .  S
C302        N318   1.355       .  A
C302        C314   1.453       .  S
C302        C558   1.474       .  S
C303        C863   1.455       .  S
Co304      Cl315   2.432   1_554  S
N305        C316   1.361       .  A
C306        C563   1.471       .  S
Co308      Cl315   2.462   1_554  S
N311        N892   1.316       .  A
Cl315      Co868   2.445       .  S
Cl315      Co870   2.452       .  S
C316        C566   1.485       .  S
C319        N337   1.358       .  A
C319        C356   1.455       .  S
C319        C578   1.484       .  S
N320        N337   1.331       .  A
N320        N342   1.319       .  A
N320       Co357   2.113       .  S
C321        N346   1.339       .  A
C321        C359   1.453       .  S
C321        H366   1.082       .  S
H322        C363   1.082       .  S
C323        N347   1.348       .  A
C323        C327   1.467       .  S
C323        H352   1.082       .  S
Co324       N342   2.063       .  S
Co324       N332   2.066       .  S
Co324       N364   2.056       .  S
Co324       N340   2.076       .  S
Co324      Cl965   2.438       .  S
N325        C363   1.342       .  A
N325        N929   1.317   1_554  A
N325       Co326   2.078       .  S
Co326       N329   2.059       .  S
Co326       N346   2.069       .  S
Co326       N333   2.060       .  S
Co326      Cl368   2.446       .  S
C327        N365   1.343       .  A
C327        C574   1.476       .  S
N328        N358   1.326       .  A
N328        N932   1.323   1_554  A
N328       Co361   2.095       .  S
N329        N347   1.320       .  A
N329        N365   1.319       .  A
N330        C956   1.347       .  A
N330        N340   1.323       .  A
H331        C356   1.080       .  S
N332        N353   1.322       .  A
N332        N922   1.317       .  A
N333        N351   1.320       .  A
N333        N338   1.318       .  A
C334        N338   1.342       .  A
C334        C362   1.469       .  S
C334        C519   1.478       .  S
N335        C350   1.342       .  A
N335        N925   1.324       .  A
N335       Co357   2.095       .  S
C336        N364   1.330       .  A
C336        C339   1.453       .  S
C336        H370   1.080       .  S
C339        N360   1.358       .  A
C339        C523   1.482       .  S
N340        N943   1.317       .  A
N341        C367   1.345       .  A
N341        N940   1.324       .  A
N341       Co357   2.099       .  S
N342        C356   1.332       .  A
N343        N371   1.329       .  A
N343        N938   1.324   1_554  A
N343       Co361   2.109       .  S
H344        C367   1.082       .  S
H345        C362   1.081       .  S
N346        N937   1.317   1_554  A
N347       Co361   2.110       .  S
N348        N360   1.331       .  A
N348        N364   1.318       .  A
N348       Co357   2.110       .  S
C349        N950   1.344   1_554  A
C349        C363   1.458       .  S
C349        C486   1.429       .  S
C350        C369   1.456       .  S
C350        H354   1.082       .  S
N351        C362   1.349       .  A
N351       Co361   2.108       .  S
N353        C946   1.345       .  A
C355        N371   1.352       .  A
C355        C964   1.458   1_554  S
C355        C497   1.452       .  S
Co357      Cl965   2.464       .  S
N358        C966   1.348       .  A
C359        N927   1.345   1_554  A
C359        C480   1.422       .  S
Co361      Cl368   2.455       .  S
C367        C952   1.458       .  S
Cl368      Co921   2.435   1_554  S
Cl368      Co954   2.461   1_554  S
C369        N955   1.349       .  A
C369        C488   1.442       .  S
C372        N390   1.346   1_556  A
C372       C1006   1.453       .  S
C372        C485   1.425       .  S
N373        N390   1.323       .  A
N373        N992   1.318   1_554  A
N373       Co410   2.073       .  S
C374        N399   1.348       .  A
C374        C412   1.467       .  S
C374        H419   1.081       .  S
H375        C416   1.082       .  S
C376        N400   1.339       .  A
C376        C977   1.451   1_554  S
C376        H405   1.081       .  S
Co377       N395   2.065       .  S
Co377       N385   2.064       .  S
Co377       N417   2.071       .  S
Co377       N393   2.065       .  S
Co377     Cl1018   2.443       .  S
N378        C416   1.350       .  A
N378        N385   1.320       .  A
N378       Co379   2.114       .  S
Co379       N382   2.110       .  S
Co379       N399   2.109       .  S
Co379       N386   2.105       .  S
Co379     Cl1018   2.458       .  S
C380        N418   1.353       .  A
C380        C973   1.455       .  S
C380       C1088   1.450       .  S
N381        N388   1.318       .  A
N381        N411   1.330       .  A
N381       Co414   2.103       .  S
N382        N418   1.330       .  A
N382        N997   1.323       .  A
N383        C412   1.345       .  A
N383        N393   1.321       .  A
H384        C409   1.081       .  S
N385        N406   1.320       .  A
N386        N391   1.328       .  A
N386       N1001   1.323       .  A
C387        N988   1.350   1_554  A
C387        C415   1.457       .  S
C387        C479   1.445       .  S
N388        C403   1.331       .  A
N388       Co410   2.062       .  S
C389        N417   1.338       .  A
C389        C989   1.453       .  S
C389        H423   1.082       .  S
N391        C984   1.351       .  A
C392        N413   1.344       .  A
C392        C986   1.454   1_554  S
C392        C481   1.423       .  S
N393        N399   1.320       .  A
N394        C420   1.332       .  A
N394        N396   1.318       .  A
N394       Co410   2.063       .  S
N395        C409   1.336       .  A
N395        N970   1.317       .  A
N396        N424   1.330       .  A
N396       Co414   2.101       .  S
H397        C420   1.080       .  S
H398        C415   1.081       .  S
N400        N979   1.323   1_554  A
N400       Co414   2.084       .  S
N401        N413   1.322       .  A
N401       N1014   1.317   1_554  A
N401       Co410   2.067       .  S
C402        N406   1.344       .  A
C402        C416   1.471       .  S
C402        C555   1.483       .  S
C403        C422   1.458       .  S
C403        H407   1.080       .  S
N404        C415   1.343       .  A
N404        N983   1.323   1_554  A
N404       Co414   2.093       .  S
C408        N424   1.356       .  A
C408        C420   1.455       .  S
C408        C527   1.480       .  S
C409        C969   1.449       .  S
Co410      Cl421   2.437   1_554  S
N411        C422   1.356       .  A
C412        C530   1.479       .  S
Co414      Cl421   2.461   1_554  S
N417        N998   1.317       .  A
Cl421      Co974   2.448       .  S
Cl421      Co976   2.454       .  S
C422        C550   1.483       .  S
C425        N443   1.358       .  A
C425        C462   1.453       .  S
C425        C595   1.482       .  S
N426        N443   1.331       .  A
N426        N448   1.318       .  A
N426       Co463   2.112       .  S
C427        N452   1.337       .  A
C427        C465   1.449       .  S
C427        H472   1.081       .  S
H428        C469   1.082       .  S
C429        N453   1.350       .  A
C429        C433   1.470       .  S
C429        H458   1.081       .  S
Co430       N448   2.056       .  S
Co430       N438   2.063       .  S
Co430       N470   2.057       .  S
Co430       N446   2.068       .  S
Co430     Cl1071   2.435       .  S
N431        C469   1.340       .  A
N431       N1035   1.317   1_554  A
N431       Co432   2.073       .  S
Co432       N435   2.057       .  S
Co432       N452   2.061       .  S
Co432       N439   2.071       .  S
Co432      Cl474   2.449       .  S
C433        N471   1.343       .  A
C433        C591   1.480       .  S
N434        N464   1.323       .  A
N434       N1038   1.324   1_554  A
N434       Co467   2.082       .  S
N435        N453   1.320       .  A
N435        N471   1.319       .  A
N436       C1062   1.345       .  A
N436        N446   1.322       .  A
H437        C462   1.080       .  S
N438        N459   1.320       .  A
N438       N1028   1.316       .  A
N439        N457   1.319       .  A
N439        N444   1.321       .  A
C440        N444   1.346       .  A
C440        C468   1.466       .  S
C440        C502   1.481       .  S
N441        C456   1.340       .  A
N441       N1031   1.324       .  A
N441       Co463   2.086       .  S
C442        N470   1.331       .  A
C442        C445   1.455       .  S
C442        H476   1.080       .  S
C445        N466   1.358       .  A
C445        C507   1.483       .  S
N446       N1049   1.317       .  A
N447        C473   1.342       .  A
N447       N1046   1.325       .  A
N447       Co463   2.093       .  S
N448        C462   1.331       .  A
N449        N477   1.327       .  A
N449       N1044   1.325   1_554  A
N449       Co467   2.100       .  S
H450        C473   1.081       .  S
H451        C468   1.081       .  S
N452       N1043   1.317   1_554  A
N453       Co467   2.116       .  S
N454        N466   1.331       .  A
N454        N470   1.317       .  A
N454       Co463   2.108       .  S
C455       N1056   1.346   1_554  A
C455        C469   1.454       .  S
C455        C492   1.426       .  S
C456        C475   1.453       .  S
C456        H460   1.082       .  S
N457        C468   1.348       .  A
N457       Co467   2.101       .  S
N459       C1052   1.343       .  A
C461        N477   1.350   1_556  A
C461       C1070   1.456       .  S
C461        C478   1.445   1_556  S
Co463     Cl1071   2.462       .  S
N464       C1072   1.344   1_554  A
C465       N1033   1.345   1_554  A
C465        C500   1.420       .  S
Co467      Cl474   2.453       .  S
C473       C1058   1.455       .  S
Cl474     Co1027   2.439   1_554  S
Cl474     Co1060   2.461   1_554  S
C475       N1061   1.347       .  A
C475        C483   1.432       .  S
C478        C479   1.211       .  T
C480        C481   1.198       .  T
C482        C483   1.203   1_565  T
C484        C485   1.199       .  T
C486        C487   1.202       .  T
C488        C489   1.209   1_565  T
C490        C491   1.208   1_655  T
C491        C977   1.440       .  S
C492        C493   1.200       .  T
C494        C495   1.212   1_455  T
C495        C765   1.446       .  S
C496        C497   1.215       .  T
C498        C499   1.195       .  T
C500        C501   1.196       .  T
C502        C503   1.347       .  D
C502        H504   1.085       .  S
C503        H505   1.086       .  S
C506        C507   1.348       .  D
C506        H508   1.082       .  S
C507        H509   1.086       .  S
C510        C511   1.350       .  D
C510        H512   1.082       .  S
C511        H513   1.085       .  S
C514        C515   1.346       .  D
C514        H516   1.085       .  S
C515        H517   1.087       .  S
C518        C519   1.350       .  D
C518        H520   1.086       .  S
C519        H521   1.085       .  S
C522        C523   1.348       .  D
C522        H524   1.083       .  S
C523        H525   1.086       .  S
C526        C527   1.346       .  D
C526        H528   1.083       .  S
C527        H529   1.085       .  S
C530        C531   1.348       .  D
C530        H532   1.085       .  S
C531        H533   1.086       .  S
C534        C535   1.346       .  D
C534        H536   1.086       .  S
C535        H537   1.084       .  S
C538        C539   1.328       .  D
C538        H540   1.086       .  S
C539        H541   1.086       .  S
C542        C543   1.348       .  D
C542        H544   1.085       .  S
C543        H545   1.085       .  S
C546        C547   1.351       .  D
C546        H548   1.086       .  S
C547        H549   1.085       .  S
C550        C551   1.344       .  D
C550        H552   1.085       .  S
C551        H553   1.082       .  S
C554        C555   1.351       .  D
C554        H556   1.087       .  S
C555        H557   1.086       .  S
C558        C559   1.346       .  D
C558        H560   1.085       .  S
C559        H561   1.083       .  S
C562        C563   1.345       .  D
C562        H564   1.086       .  S
C563        H565   1.085       .  S
C566        C567   1.351       .  D
C566        H568   1.086       .  S
C567        H569   1.082       .  S
C570        C571   1.349       .  D
C570        H572   1.086       .  S
C571        H573   1.086       .  S
C574        C575   1.348       .  D
C574        H576   1.085       .  S
C575        H577   1.086       .  S
C578        C579   1.349       .  D
C578        H580   1.085       .  S
C579        H581   1.083       .  S
C582        C583   1.350       .  D
C582        H584   1.086       .  S
C583        H585   1.082       .  S
C586        C587   1.348       .  D
C586        H588   1.086       .  S
C587        H589   1.086       .  S
C590        C591   1.350       .  D
C590        H592   1.086       .  S
C591        H593   1.085       .  S
C594        C595   1.349       .  D
C594        H596   1.083       .  S
C595        H597   1.085       .  S
C598        N616   1.354       .  A
C598        C635   1.458       .  S
C598       C1191   1.479       .  S
N599        N616   1.326       .  A
N599        N621   1.320       .  A
N599       Co636   2.111       .  S
C600        N625   1.340       .  A
C600        C638   1.460       .  S
C600        H645   1.082       .  S
H601        C642   1.081       .  S
C602        N626   1.338       .  A
C602        C606   1.452       .  S
C602        H631   1.081       .  S
Co603       N621   2.075   1_565  S
Co603       N611   2.081       .  S
Co603       N643   2.077   1_565  S
Co603       N619   2.072       .  S
Co603      Cl647   2.461       .  S
N604        C642   1.338       .  A
N604        N611   1.322       .  A
N604       Co605   2.090       .  S
Co605       N608   2.102       .  S
Co605       N625   2.098       .  S
Co605       N612   2.110       .  S
Co605      Cl647   2.446       .  S
C606        N644   1.353       .  A
C606       C1176   1.469       .  S
N607        N614   1.321       .  A
N607        N637   1.324       .  A
N607       Co640   2.067   1_545  S
N608        N626   1.318       .  A
N608        N644   1.325       .  A
N609        C638   1.345       .  A
N609        N619   1.326       .  A
H610        C635   1.082       .  S
N611        N632   1.328       .  A
N612        N630   1.319       .  A
N612        N617   1.328       .  A
C613        N617   1.357       .  A
C613        C641   1.452       .  S
C613       C1172   1.478       .  S
N614        C629   1.341       .  A
N614       Co636   2.096       .  S
C615        N643   1.340       .  A
C615        C618   1.456       .  S
C615        H649   1.081       .  S
C618        N639   1.356       .  A
C618       C1187   1.480       .  S
N619        N625   1.322       .  A
N620        C646   1.347       .  A
N620        N622   1.321       .  A
N620       Co636   2.121       .  S
N621        C635   1.343       .  A
N622        N650   1.321       .  A
N622       Co640   2.048   1_545  S
H623        C646   1.081       .  S
H624        C641   1.081       .  S
N626       Co640   2.057       .  S
N627        N639   1.328       .  A
N627        N643   1.321       .  A
N627       Co636   2.111       .  S
C628        N632   1.349       .  A
C628        C642   1.455       .  S
C628       C1168   1.469       .  S
C629        C648   1.459       .  S
C629        H633   1.081       .  S
N630        C641   1.338       .  A
N630       Co640   2.067       .  S
C634        N650   1.337       .  A
C634        C646   1.477       .  S
C634       C1180   1.478       .  S
Co636      Cl647   2.449   1_545  S
N637        C648   1.346       .  A
C638       C1164   1.469       .  S
Co640      Cl647   2.456       .  S
C648       C1184   1.468       .  S
C651        N669   1.349       .  A
C651        C688   1.455       .  S
C651       C1159   1.466       .  S
N652        N669   1.324       .  A
N652        N674   1.319       .  A
N652       Co689   2.081       .  S
C653        N678   1.339       .  A
C653        C691   1.456       .  S
C653        H698   1.081       .  S
H654        C695   1.081       .  S
C655        N679   1.342       .  A
C655        C659   1.459       .  S
C655        H684   1.081       .  S
Co656       N674   2.076       .  S
Co656       N664   2.052   1_455  S
Co656       N696   2.058       .  S
Co656       N672   2.091   1_455  S
Co656      Cl700   2.463       .  S
N657        C695   1.349       .  A
N657        N664   1.320       .  A
N657       Co658   2.124       .  S
Co658       N661   2.104       .  S
Co658       N678   2.095       .  S
Co658       N665   2.104       .  S
Co658      Cl700   2.443   1_655  S
C659        N697   1.353       .  A
C659       C1143   1.481       .  S
N660        N667   1.321       .  A
N660        N690   1.327       .  A
N660       Co693   2.082       .  S
N661        N679   1.322       .  A
N661        N697   1.327       .  A
N662        C691   1.353       .  A
N662        N672   1.330       .  A
H663        C688   1.081       .  S
N664        N685   1.321       .  A
N665        N683   1.322       .  A
N665        N670   1.325       .  A
C666        N670   1.351       .  A
C666        C694   1.457       .  S
C666       C1140   1.473       .  S
N667        C682   1.342       .  A
N667       Co689   2.098       .  S
C668        N696   1.339       .  A
C668        C671   1.455       .  S
C668        H702   1.081       .  S
C671        N692   1.349       .  A
C671       C1156   1.463       .  S
N672        N678   1.321       .  A
N673        C699   1.333       .  A
N673        N675   1.320       .  A
N673       Co689   2.070       .  S
N674        C688   1.338       .  A
N675        N703   1.331       .  A
N675       Co693   2.101       .  S
H676        C699   1.082       .  S
H677        C694   1.081       .  S
N679       Co693   2.087   1_655  S
N680        N692   1.323       .  A
N680        N696   1.319       .  A
N680       Co689   2.092       .  S
C681        N685   1.338       .  A
C681        C695   1.479       .  S
C681       C1136   1.481       .  S
C682        C701   1.461       .  S
C682        H686   1.082       .  S
N683        C694   1.341       .  A
N683       Co693   2.075   1_655  S
C687        N703   1.354       .  A
C687        C699   1.448       .  S
C687       C1148   1.470       .  S
Co689      Cl700   2.439       .  S
N690        C701   1.349       .  A
C691       C1132   1.479       .  S
Co693      Cl700   2.467       .  S
C701       C1151   1.477       .  S
C704        N722   1.350       .  A
C704        C741   1.460       .  S
C704       C1128   1.474       .  S
N705        N722   1.325       .  A
N705        N727   1.320       .  A
N705       Co742   2.096       .  S
C706        N731   1.341       .  A
C706        C744   1.460       .  S
C706        H751   1.082       .  S
H707        C748   1.082       .  S
C708        N732   1.341       .  A
C708        C712   1.457       .  S
C708        H737   1.081       .  S
Co709       N727   2.080       .  S
Co709       N717   2.082       .  S
Co709       N749   2.081       .  S
Co709       N725   2.080       .  S
Co709      Cl753   2.470       .  S
N710        C748   1.338       .  A
N710        N717   1.321       .  A
N710       Co711   2.089       .  S
Co711       N714   2.094       .  S
Co711       N731   2.097       .  S
Co711       N718   2.094       .  S
Co711      Cl753   2.434       .  S
C712        N750   1.349       .  A
C712       C1112   1.469       .  S
N713        N720   1.320       .  A
N713        N743   1.328       .  A
N713       Co746   2.084       .  S
N714        N732   1.320       .  A
N714        N750   1.324       .  A
N715        C744   1.348       .  A
N715        N725   1.326       .  A
H716        C741   1.081       .  S
N717        N738   1.328       .  A
N718        N736   1.320       .  A
N718        N723   1.323       .  A
C719        N723   1.350       .  A
C719        C747   1.458       .  S
C719       C1107   1.470       .  S
N720        C735   1.337       .  A
N720       Co742   2.081       .  S
C721        N749   1.344       .  A
C721        C724   1.460       .  S
C721        H755   1.082       .  S
C724        N745   1.348       .  A
C724       C1123   1.469       .  S
N725        N731   1.322       .  A
N726        C752   1.341       .  A
N726        N728   1.321       .  A
N726       Co742   2.096       .  S
N727        C741   1.342       .  A
N728        N756   1.326       .  A
N728       Co746   2.078       .  S
H729        C752   1.082       .  S
H730        C747   1.082       .  S
N732       Co746   2.074       .  S
N733        N745   1.322       .  A
N733        N749   1.320       .  A
N733       Co742   2.085       .  S
C734        N738   1.349       .  A
C734        C748   1.456       .  S
C734       C1103   1.472       .  S
C735        C754   1.453       .  S
C735        H739   1.082       .  S
N736        C747   1.344       .  A
N736       Co746   2.079       .  S
C740        N756   1.348       .  A
C740        C752   1.459       .  S
C740       C1115   1.473       .  S
Co742      Cl753   2.434       .  S
N743        C754   1.350       .  A
C744       C1100   1.474       .  S
Co746      Cl753   2.473       .  S
C754       C1119   1.469       .  S
C757        N775   1.345       .  A
C757       C1095   1.416       .  S
N758        N775   1.323       .  A
N758       Co795   2.066       .  S
C759        N784   1.346       .  A
C759        C797   1.464       .  S
C759        H804   1.082       .  S
H760        C801   1.081       .  S
C761        N785   1.342       .  A
C761        H790   1.081       .  S
Co762       N780   2.066       .  S
Co762       N770   2.039       .  S
Co762       N802   2.054       .  S
Co762       N778   2.060       .  S
N763        C801   1.358       .  A
N763        N770   1.320       .  A
N763       Co764   2.136       .  S
Co764       N767   2.100       .  S
Co764       N784   2.098       .  S
Co764       N771   2.115       .  S
C765        N803   1.350   1_554  A
N766        N773   1.319       .  A
N766        N796   1.330       .  A
N766       Co799   2.110       .  S
N767        N803   1.328       .  A
N768        C797   1.345       .  A
N768        N778   1.319       .  A
H769        C794   1.081       .  S
N770        N791   1.314       .  A
N771        N776   1.330       .  A
C772        C800   1.458       .  S
C772       C1093   1.455       .  S
N773        C788   1.337       .  A
N773       Co795   2.073       .  S
C774        N802   1.336       .  A
C774        H808   1.082       .  S
C777        N798   1.347       .  A
C777       C1098   1.420       .  S
N778        N784   1.319       .  A
N779        C805   1.327       .  A
N779        N781   1.318       .  A
N779       Co795   2.048       .  S
N780        C794   1.336       .  A
N781        N809   1.333       .  A
N781       Co799   2.120       .  S
H782        C805   1.080       .  S
H783        C800   1.081       .  S
N785       Co799   2.099       .  S
N786        N798   1.322       .  A
N786       Co795   2.077       .  S
C787        N791   1.332       .  A
C787        C801   1.483       .  S
C787       C1135   1.474       .  S
C788        C807   1.459       .  S
C788        H792   1.081       .  S
N789        C800   1.344       .  A
N789       Co799   2.100       .  S
C793        N809   1.361       .  A
C793        C805   1.451       .  S
C793       C1108   1.485       .  S
Co795      Cl806   2.441       .  S
N796        C807   1.357       .  A
C797       C1111   1.474       .  S
Co799      Cl806   2.456       .  S
C807       C1131   1.488       .  S
C810        N828   1.342       .  A
C810       C1090   1.423       .  S
N811        N828   1.321       .  A
N811       Co848   2.066       .  S
C812        N837   1.348       .  A
C812        C850   1.468       .  S
C812        H857   1.081       .  S
H813        C854   1.082       .  S
C814        N838   1.343       .  A
C814        H843   1.082       .  S
Co815       N833   2.071       .  S
Co815       N823   2.061       .  S
Co815       N855   2.071       .  S
Co815       N831   2.067       .  S
N816        C854   1.348       .  A
N816        N823   1.320       .  A
N816       Co817   2.103       .  S
Co817       N820   2.097       .  S
Co817       N837   2.110       .  S
Co817       N824   2.087       .  S
C818        N856   1.349   1_554  A
C818       C1086   1.438       .  S
N819        N826   1.319       .  A
N819        N849   1.337       .  A
N819       Co852   2.141       .  S
N820        N856   1.326       .  A
N821        C850   1.346       .  A
N821        N831   1.322       .  A
H822        C847   1.082       .  S
N823        N844   1.318       .  A
N824        N829   1.325       .  A
C825        C853   1.462       .  S
C825       C1087   1.450       .  S
N826        C841   1.324       .  A
N826       Co848   2.031       .  S
C827        N855   1.338       .  A
C827        H861   1.082       .  S
C830        N851   1.342       .  A
C830       C1096   1.414       .  S
N831        N837   1.319       .  A
N832        C858   1.334       .  A
N832        N834   1.318       .  A
N832       Co848   2.058       .  S
N833        C847   1.339       .  A
N834        N862   1.329       .  A
N834       Co852   2.104       .  S
H835        C858   1.081       .  S
H836        C853   1.081       .  S
N838       Co852   2.097       .  S
N839        N851   1.318       .  A
N839       Co848   2.049       .  S
C840        N844   1.343       .  A
C840        C854   1.467       .  S
C840       C1183   1.474       .  S
C841        C860   1.429       .  S
C841        H845   1.081       .  S
N842        C853   1.346       .  A
N842       Co852   2.114       .  S
C846        N862   1.356       .  A
C846        C858   1.454       .  S
C846       C1139   1.479       .  S
Co848      Cl859   2.428       .  S
N849        C860   1.366       .  A
C850       C1144   1.482       .  S
Co852      Cl859   2.465       .  S
C860       C1179   1.471       .  S
C863        N881   1.345       .  A
C863       C1084   1.427       .  S
N864        N881   1.322       .  A
N864       Co901   2.068       .  S
C865        N890   1.343       .  A
C865        C903   1.460       .  S
C865        H910   1.082       .  S
H866        C907   1.082       .  S
C867        N891   1.340       .  A
C867        H896   1.082       .  S
Co868       N886   2.081       .  S
Co868       N876   2.059       .  S
Co868       N908   2.067       .  S
Co868       N884   2.065       .  S
N869        C907   1.350       .  A
N869        N876   1.320       .  A
N869       Co870   2.111       .  S
Co870       N873   2.078       .  S
Co870       N890   2.086       .  S
Co870       N877   2.101       .  S
C871        N909   1.344   1_554  A
C871       C1079   1.431       .  S
N872        N879   1.318       .  A
N872        N902   1.334       .  A
N872       Co905   2.124       .  S
N873        N909   1.323       .  A
N874        C903   1.345       .  A
N874        N884   1.320       .  A
H875        C900   1.082       .  S
N876        N897   1.317       .  A
N877        N882   1.328       .  A
C878        C906   1.459       .  S
C878       C1091   1.448       .  S
N879        C894   1.326       .  A
N879       Co901   2.046       .  S
C880        N908   1.338       .  A
C880        H914   1.082       .  S
C883        N904   1.343       .  A
C883       C1081   1.421       .  S
N884        N890   1.319       .  A
N885        C911   1.330       .  A
N885        N887   1.317       .  A
N885       Co901   2.055       .  S
N886        C900   1.342       .  A
N887        N915   1.328       .  A
N887       Co905   2.094       .  S
H888        C911   1.080       .  S
H889        C906   1.081       .  S
N891       Co905   2.084       .  S
N892        N904   1.321       .  A
N892       Co901   2.061       .  S
C893        N897   1.344       .  A
C893        C907   1.469       .  S
C893       C1167   1.480       .  S
C894        C913   1.449       .  S
C894        H898   1.080       .  S
N895        C906   1.345       .  A
N895       Co905   2.104       .  S
C899        N915   1.354       .  A
C899        C911   1.453       .  S
C899       C1155   1.473       .  S
Co901      Cl912   2.432       .  S
N902        C913   1.362       .  A
C903       C1160   1.468       .  S
Co905      Cl912   2.462       .  S
C913       C1163   1.485       .  S
C916        N934   1.359       .  A
C916        C953   1.449       .  S
C916       C1175   1.478       .  S
N917        N934   1.331       .  A
N917        N939   1.318       .  A
N917       Co954   2.115       .  S
C918        N943   1.338       .  A
C918        C956   1.451       .  S
C918        H963   1.081       .  S
H919        C960   1.082       .  S
C920        N944   1.351       .  A
C920        C924   1.473       .  S
C920        H949   1.082       .  S
Co921       N939   2.048       .  S
Co921       N929   2.070       .  S
Co921       N961   2.063       .  S
Co921       N937   2.065       .  S
N922        C960   1.341       .  A
N922       Co923   2.077       .  S
Co923       N926   2.052       .  S
Co923       N943   2.063       .  S
Co923       N930   2.068       .  S
Co923      Cl965   2.446       .  S
C924        N962   1.341       .  A
C924       C1171   1.480       .  S
N925        N955   1.327       .  A
N925       Co958   2.096       .  S
N926        N944   1.321       .  A
N926        N962   1.319       .  A
N927        N937   1.321       .  A
H928        C953   1.080       .  S
N929        N950   1.322       .  A
N930        N948   1.320       .  A
N930        N935   1.320       .  A
C931        N935   1.345       .  A
C931        C959   1.466       .  S
C931       C1116   1.478       .  S
N932        C947   1.341       .  A
N932       Co954   2.088       .  S
C933        N961   1.332       .  A
C933        C936   1.457       .  S
C933        H967   1.080       .  S
C936        N957   1.355       .  A
C936       C1120   1.481       .  S
N938        C964   1.344       .  A
N938       Co954   2.101       .  S
N939        C953   1.329       .  A
N940        N968   1.330       .  A
N940       Co958   2.117       .  S
H941        C964   1.081       .  S
H942        C959   1.081       .  S
N944       Co958   2.123       .  S
N945        N957   1.329       .  A
N945        N961   1.318       .  A
N945       Co954   2.101       .  S
C946        C960   1.456       .  S
C946       C1083   1.427       .  S
C947        C966   1.454   1_556  S
C947        H951   1.081       .  S
N948        C959   1.348       .  A
N948       Co958   2.102       .  S
C952        N968   1.354       .  A
C952       C1094   1.455       .  S
C956       C1077   1.426       .  S
Co958      Cl965   2.457       .  S
C966       C1085   1.438       .  S
C969        N987   1.347       .  A
C969       C1082   1.422       .  S
N970        N987   1.323       .  A
N970      Co1007   2.072       .  S
C971        N996   1.347       .  A
C971       C1009   1.465       .  S
C971       H1016   1.082       .  S
H972       C1013   1.082       .  S
C973        N997   1.342       .  A
C973       H1002   1.081       .  S
Co974       N992   2.073       .  S
Co974       N982   2.067       .  S
Co974      N1014   2.073       .  S
Co974       N990   2.069       .  S
N975       C1013   1.349       .  A
N975        N982   1.320       .  A
N975       Co976   2.111       .  S
Co976       N979   2.102       .  S
Co976       N996   2.104       .  S
Co976       N983   2.100       .  S
C977       N1015   1.351       .  A
N978        N985   1.319       .  A
N978       N1008   1.330       .  A
N978      Co1011   2.101       .  S
N979       N1015   1.328       .  A
N980       C1009   1.346       .  A
N980        N990   1.321       .  A
H981       C1006   1.082       .  S
N982       N1003   1.321       .  A
N983        N988   1.327       .  A
C984       C1012   1.455       .  S
C984       C1076   1.445       .  S
N985       C1000   1.333       .  A
N985      Co1007   2.068       .  S
C986       N1014   1.339       .  A
C986       H1020   1.082       .  S
C989       N1010   1.347       .  A
C989       C1078   1.426       .  S
N990        N996   1.320       .  A
N991       C1017   1.332       .  A
N991        N993   1.319       .  A
N991      Co1007   2.062       .  S
N992       C1006   1.339       .  A
N993       N1021   1.330       .  A
N993      Co1011   2.106       .  S
H994       C1017   1.081       .  S
H995       C1012   1.081       .  S
N997      Co1011   2.092       .  S
N998       N1010   1.323       .  A
N998      Co1007   2.075       .  S
C999       N1003   1.345       .  A
C999       C1013   1.469       .  S
C999       C1152   1.482       .  S
C1000      C1019   1.459       .  S
C1000      H1004   1.081       .  S
N1001      C1012   1.343       .  A
N1001     Co1011   2.090       .  S
C1005      N1021   1.356       .  A
C1005      C1017   1.455       .  S
C1005      C1124   1.480       .  S
Co1007    Cl1018   2.443       .  S
N1008      C1019   1.355       .  A
C1009      C1127   1.478       .  S
Co1011    Cl1018   2.460       .  S
C1019      C1147   1.483       .  S
C1022      N1040   1.359       .  A
C1022      C1059   1.454       .  S
C1022      C1192   1.486       .  S
N1023      N1040   1.331       .  A
N1023      N1045   1.319       .  A
N1023     Co1060   2.118       .  S
C1024      N1049   1.337       .  A
C1024      C1062   1.450       .  S
C1024      H1069   1.081       .  S
H1025      C1066   1.082       .  S
C1026      N1050   1.350       .  A
C1026      C1030   1.471       .  S
C1026      H1055   1.081       .  S
Co1027     N1045   2.065       .  S
Co1027     N1035   2.071       .  S
Co1027     N1067   2.063       .  S
Co1027     N1043   2.072       .  S
N1028      C1066   1.340       .  A
N1028     Co1029   2.073       .  S
Co1029     N1032   2.060       .  S
Co1029     N1049   2.065       .  S
Co1029     N1036   2.065       .  S
Co1029    Cl1071   2.450       .  S
C1030      N1068   1.344       .  A
C1030      C1188   1.482       .  S
N1031      N1061   1.325       .  A
N1031     Co1064   2.089       .  S
N1032      N1050   1.320       .  A
N1032      N1068   1.321       .  A
N1033      N1043   1.322       .  A
H1034      C1059   1.081       .  S
N1035      N1056   1.322       .  A
N1036      N1054   1.319       .  A
N1036      N1041   1.320       .  A
C1037      N1041   1.344       .  A
C1037      C1065   1.468       .  S
C1037      C1099   1.479       .  S
N1038      C1053   1.342       .  A
N1038     Co1060   2.091       .  S
C1039      N1067   1.333       .  A
C1039      C1042   1.456       .  S
C1039      H1073   1.081       .  S
C1042      N1063   1.357       .  A
C1042      C1104   1.483       .  S
N1044      C1070   1.343       .  A
N1044     Co1060   2.099       .  S
N1045      C1059   1.334       .  A
N1046      N1074   1.328       .  A
N1046     Co1064   2.107       .  S
H1047      C1070   1.082       .  S
H1048      C1065   1.081       .  S
N1050     Co1064   2.121       .  S
N1051      N1063   1.330       .  A
N1051      N1067   1.318       .  A
N1051     Co1060   2.106       .  S
C1052      C1066   1.456       .  S
C1052      C1089   1.422       .  S
C1053      C1072   1.456       .  S
C1053      H1057   1.082       .  S
N1054      C1065   1.349       .  A
N1054     Co1064   2.105       .  S
C1058      N1074   1.351       .  A
C1058      C1075   1.445       .  S
C1062      C1097   1.421       .  S
Co1064    Cl1071   2.451       .  S
C1072      C1080   1.431       .  S
C1075      C1076   1.211       .  T
C1077      C1078   1.200       .  T
C1079      C1080   1.203   1_564  T
C1081      C1082   1.197       .  T
C1083      C1084   1.200       .  T
C1085      C1086   1.207   1_565  T
C1087      C1088   1.214   1_655  T
C1089      C1090   1.198       .  T
C1091      C1092   1.213   1_455  T
C1093      C1094   1.217       .  T
C1095      C1096   1.193       .  T
C1097      C1098   1.196       .  T
C1099      C1100   1.349       .  D
C1099      H1101   1.085       .  S
C1100      H1102   1.086       .  S
C1103      C1104   1.347       .  D
C1103      H1105   1.084       .  S
C1104      H1106   1.086       .  S
C1107      C1108   1.351       .  D
C1107      H1109   1.082       .  S
C1108      H1110   1.085       .  S
C1111      C1112   1.345       .  D
C1111      H1113   1.086       .  S
C1112      H1114   1.087       .  S
C1115      C1116   1.347       .  D
C1115      H1117   1.086       .  S
C1116      H1118   1.086       .  S
C1119      C1120   1.345       .  D
C1119      H1121   1.083       .  S
C1120      H1122   1.086       .  S
C1123      C1124   1.346       .  D
C1123      H1125   1.084       .  S
C1124      H1126   1.086       .  S
C1127      C1128   1.347       .  D
C1127      H1129   1.085       .  S
C1128      H1130   1.086       .  S
C1131      C1132   1.348       .  D
C1131      H1133   1.086       .  S
C1132      H1134   1.085       .  S
C1135      C1136   1.329       .  D
C1135      H1137   1.086       .  S
C1136      H1138   1.086       .  S
C1139      C1140   1.348       .  D
C1139      H1141   1.085       .  S
C1140      H1142   1.084       .  S
C1143      C1144   1.350       .  D
C1143      H1145   1.086       .  S
C1144      H1146   1.085       .  S
C1147      C1148   1.343       .  D
C1147      H1149   1.086       .  S
C1148      H1150   1.084       .  S
C1151      C1152   1.349       .  D
C1151      H1153   1.087       .  S
C1152      H1154   1.086       .  S
C1155      C1156   1.345       .  D
C1155      H1157   1.085       .  S
C1156      H1158   1.083       .  S
C1159      C1160   1.343       .  D
C1159      H1161   1.087       .  S
C1160      H1162   1.085       .  S
C1163      C1164   1.352       .  D
C1163      H1165   1.085       .  S
C1164      H1166   1.081       .  S
C1167      C1168   1.348       .  D
C1167      H1169   1.086       .  S
C1168      H1170   1.086       .  S
C1171      C1172   1.354       .  D
C1171      H1173   1.085       .  S
C1172      H1174   1.086       .  S
C1175      C1176   1.351       .  D
C1175      H1177   1.085       .  S
C1176      H1178   1.083       .  S
C1179      C1180   1.327       .  D
C1179      H1181   1.086       .  S
C1180      H1182   1.086       .  S
C1183      C1184   1.347       .  D
C1183      H1185   1.086       .  S
C1184      H1186   1.086       .  S
C1187      C1188   1.352       .  D
C1187      H1189   1.086       .  S
C1188      H1190   1.085       .  S
C1191      C1192   1.352       .  D
C1191      H1193   1.084       .  S
C1192      H1194   1.085       .  S
