geometry optimzed in LAMMPS
_audit_creation_date              2020-11-30 
_audit_creation_method            'lammps2cif' 
_symmetry_space_group_name_H-M    'P1' 
_symmetry_Int_Tables_number       1 
_symmetry_cell_setting            triclinic 
loop_ 
_symmetry_equiv_pos_as_xyz 
  x,y,z 
_cell_length_a                    44.74622635 
_cell_length_b                    44.3468423735066 
_cell_length_c                    87.57563285187233 
_cell_angle_alpha                 90.01929312930035 
_cell_angle_beta                  89.9374313548878 
_cell_angle_gamma                 90.05563087221134 
loop_ 
_atom_site_label 
_atom_site_type_symbol 
_atom_site_fract_x 
_atom_site_fract_y 
_atom_site_fract_z 
_atom_site_charge 
C1          C  0.75009348  0.99130219  0.36820676     0.80100
N2          N  0.77194459  0.98959471  0.37887164    -0.78200
C3          C  0.77367652  0.01002471  0.39040171     0.82500
N4          N  0.75282969  0.03237539  0.39128154    -0.78200
C5          C  0.73059817  0.03428268  0.38067599     0.82600
N6          N  0.72959590  0.01373845  0.36915009    -0.79900
O7          O  0.75130363  0.78767239  0.23069899    -0.73100
O8          O  0.75965129  0.72082291  0.26138863    -0.74000
O9          O  0.75355635  0.72377098  0.22917937    -0.62700
O10         O  0.75761684  0.78484061  0.26289561    -0.71100
O11         O  0.70844289  0.78201286  0.26583143    -0.70600
O12         O  0.70419892  0.72234362  0.23124879    -0.61900
O13         O  0.71036531  0.71818151  0.26353485    -0.74400
O14         O  0.70206985  0.78641221  0.23338620    -0.73200
Cu15       Cu  0.75720644  0.75436764  0.24595512     1.04600
Cu16       Cu  0.70453051  0.75221064  0.24857974     1.04300
C17         C  0.72542661  0.79765074  0.22714828     0.93100
C18         C  0.73635584  0.70878168  0.26728132     0.92300
C19         C  0.72830871  0.71336095  0.22484998     0.84400
C20         C  0.73376250  0.79282573  0.26982330     0.90700
C21         C  0.74294616  0.50593629  0.36555291     0.80100
N22         N  0.76418492  0.48419630  0.36398812    -0.78200
C23         C  0.76584705  0.46090471  0.37408902     0.82500
N24         N  0.74589800  0.45954084  0.38581760    -0.78200
C25         C  0.72449589  0.48103383  0.38750621     0.82600
N26         N  0.72324749  0.50409603  0.37732822    -0.79900
C27         C  0.73864697  0.51941730  0.12239542     0.80100
N28         N  0.75803685  0.51986464  0.11045914    -0.78200
C29         C  0.75659474  0.49872533  0.09924516     0.82500
N30         N  0.73532812  0.47681581  0.10008031    -0.78200
C31         C  0.71568761  0.47601064  0.11196730     0.82600
N32         N  0.71753081  0.49742465  0.12304702    -0.79900
C33         C  0.73954581  0.99956754  0.12884585     0.80100
N34         N  0.76014460  0.02210730  0.12937892    -0.78200
C35         C  0.76282004  0.04223181  0.11775607     0.82500
N36         N  0.74454561  0.03958348  0.10543143    -0.78200
C37         C  0.72377369  0.01720135  0.10466243     0.82600
N38         N  0.72142730  0.99727817  0.11643229    -0.79900
C39         C  0.51016715  0.02526793  0.00171835     0.02200
C40         C  0.53063983  0.00110497  0.00320392     0.02100
C41         C  0.52888365  0.97663469  0.99303790    -0.18400
C42         C  0.50660906  0.97532192  0.98173414     0.02200
C43         C  0.48534669  0.99886741  0.98073712     0.02100
C44         C  0.48776856  0.02370984  0.99054302    -0.18400
H45         H  0.47178544  0.04196697  0.98955021     0.04200
H46         H  0.54480312  0.95832646  0.99402932     0.04200
C47         C  0.24958110  0.99417396  0.86926950     0.80100
N48         N  0.23090959  0.97013655  0.86835524    -0.78200
C49         C  0.23163189  0.94798532  0.87907118     0.82500
N50         N  0.25172405  0.94990895  0.89071413    -0.78200
C51         C  0.27079196  0.97380361  0.89167025     0.82600
N52         N  0.26936075  0.99587897  0.88094864    -0.79900
C53         C  0.25576208  0.49421803  0.87609389     0.80100
N54         N  0.23294983  0.49432441  0.88626959    -0.78200
C55         C  0.22986794  0.51675940  0.89667908     0.82500
N56         N  0.25018806  0.53963428  0.89686430    -0.78200
C57         C  0.27341297  0.53987268  0.88675986     0.82600
N58         N  0.27595115  0.51709469  0.87639675    -0.79900
O59         O  0.25803574  0.21605957  0.77311860    -0.73100
O60         O  0.25697159  0.28068386  0.74125640    -0.74000
O61         O  0.25908936  0.28014138  0.77369776    -0.62700
O62         O  0.25554105  0.21683441  0.74075788    -0.71100
O63         O  0.20608103  0.21709885  0.74220740    -0.70600
O64         O  0.20958393  0.28160410  0.77424767    -0.61900
O65         O  0.20744507  0.28113504  0.74184432    -0.74400
O66         O  0.20857121  0.21780827  0.77473179    -0.73200
Cu67       Cu  0.25912466  0.24839998  0.75718833     1.04600
Cu68       Cu  0.20619582  0.24942670  0.75828979     1.04300
C69         C  0.23359461  0.20688383  0.77906532     0.93100
C70         C  0.23210571  0.29097398  0.73636667     0.92300
C71         C  0.23482328  0.29099579  0.77913443     0.84400
C72         C  0.23016569  0.20695035  0.73626812     0.90700
C73         C  0.23958559  0.01417374  0.63284816     0.80100
N74         N  0.21662278  0.01397324  0.62270121    -0.78200
C75         C  0.21612782  0.99395987  0.61093109     0.82500
N76         N  0.23895011  0.97392142  0.60940588    -0.78200
C77         C  0.26205654  0.97375018  0.61947986     0.82600
N78         N  0.26217961  0.99399786  0.63113213    -0.79900
C79         C  0.25701867  0.47338376  0.62949223     0.80100
N80         N  0.23624316  0.49558248  0.62884324    -0.78200
C81         C  0.23748351  0.51733827  0.61794492     0.82500
N82         N  0.26013430  0.51676414  0.60752921    -0.78200
C83         C  0.28128588  0.49465050  0.60804899     0.82600
N84         N  0.27946755  0.47309519  0.61905998    -0.79900
C85         C  0.98525528  0.49058468  0.00519328     0.02200
C86         C  0.96220688  0.51234929  0.00425338     0.02100
C87         C  0.96404014  0.53515088  0.99315185    -0.18400
C88         C  0.98919563  0.53772509  0.98359647     0.02200
C89         C  0.01300921  0.51693894  0.98518202     0.02100
C90         C  0.01059334  0.49349337  0.99586071    -0.18400
H91         H  0.02839344  0.47700189  0.99670626     0.04200
H92         H  0.94638761  0.55180911  0.99238500     0.04200
O93         O  0.71103373  0.72593696  0.74973123    -0.73100
O94         O  0.76958710  0.71686094  0.71514825    -0.74000
O95         O  0.77378691  0.71782742  0.74759676    -0.62700
O96         O  0.70647125  0.72495827  0.71750582    -0.71100
O97         O  0.71375083  0.77436636  0.71610833    -0.70600
O98         O  0.77951486  0.76746658  0.74748705    -0.61900
O99         O  0.77706976  0.76628622  0.71505081    -0.74400
O100        O  0.71629843  0.77559148  0.74872564    -0.73200
Cu101      Cu  0.74003280  0.71970751  0.73248843     1.04600
Cu102      Cu  0.74686706  0.77267621  0.73180457     1.04300
C103        C  0.70424385  0.75218619  0.75466413     0.93100
C104        C  0.78293800  0.74006415  0.70977008     0.92300
C105        C  0.78710251  0.74146239  0.75247122     0.84400
C106        C  0.69938566  0.75071560  0.71207280     0.90700
C107        C  0.51612568  0.75229743  0.85957813     0.80100
N108        N  0.51855675  0.77424071  0.87033338    -0.78200
C109        C  0.49899265  0.77572150  0.88221383     0.82500
N110        N  0.47677446  0.75483846  0.88327703    -0.78200
C111        C  0.47403092  0.73270456  0.87261208     0.82600
N112        N  0.49378535  0.73168181  0.86081803    -0.79900
C113        C  0.98778219  0.73772054  0.85111457     0.80100
N114        N  0.01176336  0.75655865  0.85131239    -0.78200
C115        C  0.03178479  0.75578181  0.86296744     0.82500
N116        N  0.02762005  0.73578469  0.87453647    -0.78200
C117        C  0.00381456  0.71669938  0.87455104     0.82600
N118        N  0.98395498  0.71786577  0.86280020    -0.79900
C119        C  0.50342823  0.75823054  0.61264474     0.80100
N120        N  0.50383334  0.73730224  0.60132117    -0.78200
C121        C  0.48088305  0.73508215  0.59122660     0.82500
N122        N  0.45743379  0.75444053  0.59244958    -0.78200
C123        C  0.45673663  0.77570037  0.60366447     0.82600
N124        N  0.47975661  0.77728617  0.61378344    -0.79900
C125        C  0.99010044  0.72804953  0.61606146     0.80100
N126        N  0.98839816  0.74842276  0.60452090    -0.78200
C127        C  0.01032264  0.75026647  0.59382036     0.82500
N128        N  0.03397939  0.73114461  0.59467380    -0.78200
C129        C  0.03600352  0.71043562  0.60607838     0.82600
N130        N  0.01404477  0.70920242  0.61685232    -0.79900
C131        C  0.00556969  0.25816303  0.12145054     0.80100
N132        N  0.98203219  0.23876605  0.12175539    -0.78200
C133        C  0.96021299  0.24042776  0.11094758     0.82500
N134        N  0.96205550  0.26201511  0.09991069    -0.78200
C135        C  0.98542231  0.28164414  0.09957696     0.82600
N136        N  0.00706937  0.27935565  0.11033305    -0.79900
C137        C  0.47595324  0.25506879  0.11861388     0.80100
N138        N  0.47598895  0.23341258  0.10765200    -0.78200
C139        C  0.49736303  0.23264485  0.09668501     0.82500
N140        N  0.51913010  0.25393556  0.09674574    -0.78200
C141        C  0.51968580  0.27585695  0.10761293     0.82600
N142        N  0.49796170  0.27634783  0.11856217    -0.79900
O143        O  0.27438471  0.26629432  0.25981973    -0.73100
O144        O  0.20809999  0.27604109  0.22907042    -0.74000
O145        O  0.21097207  0.26687011  0.26108732    -0.62700
O146        O  0.27197701  0.27618359  0.22784426    -0.71100
O147        O  0.27263189  0.22665591  0.22448506    -0.70600
O148        O  0.20889487  0.21758148  0.25690128    -0.61900
O149        O  0.20908889  0.22672052  0.22490682    -0.74400
O150        O  0.27277259  0.21677738  0.25644427    -0.73200
Cu151      Cu  0.24137708  0.27307016  0.24457649     1.04600
Cu152      Cu  0.24083739  0.22022114  0.24055712     1.04300
C153        C  0.28402632  0.23987579  0.26299050     0.93100
C154        C  0.19811407  0.25270943  0.22214247     0.92300
C155        C  0.19990058  0.24099495  0.26411102     0.84400
C156        C  0.28241267  0.25293950  0.22106536     0.90700
C157        C  0.00615182  0.24177528  0.36528975     0.80100
N158        N  0.98216016  0.26053842  0.36421768    -0.78200
C159        C  0.95974008  0.25916069  0.37473879     0.82500
N160        N  0.96145287  0.23853281  0.38618913    -0.78200
C161        C  0.98516441  0.21957329  0.38735116     0.82600
N162        N  0.00751616  0.22150489  0.37690513    -0.79900
C163        C  0.47537339  0.23694160  0.36547769     0.80100
N164        N  0.49800084  0.21647789  0.36541627    -0.78200
C165        C  0.51966180  0.21736986  0.37634971     0.82500
N166        N  0.51843815  0.23902625  0.38736547    -0.78200
C167        C  0.49594075  0.25960126  0.38752109     0.82600
N168        N  0.47464492  0.25829995  0.37655331    -0.79900
C169        C  0.00311694  0.01865433  0.48577605     0.02200
C170        C  0.97776301  0.99955629  0.48674532     0.02100
C171        C  0.97694844  0.97694185  0.49796722    -0.18400
C172        C  0.00070608  0.97295365  0.50822297     0.02200
C173        C  0.02553097  0.99268744  0.50759063     0.02100
C174        C  0.02667348  0.01488878  0.49618620    -0.18400
H175        H  0.04560959  0.03014582  0.49575782     0.04200
H176        H  0.95795711  0.96176180  0.49846311     0.04200
C177        C  0.50000571  0.46139314  0.48600872     0.02200
C178        C  0.52237253  0.48391855  0.48491420     0.02100
C179        C  0.52184446  0.50844436  0.49504878    -0.18400
C180        C  0.49887030  0.51172681  0.50586477     0.02200
C181        C  0.47612569  0.48955288  0.50676568     0.02100
C182        C  0.47704345  0.46469002  0.49683263    -0.18400
H183        H  0.46001718  0.44737341  0.49777065     0.04200
H184        H  0.53883069  0.52580480  0.49410051     0.04200
C185        C  0.49411550  0.28311776  0.39954709    -0.03300
C186        C  0.47177339  0.30535145  0.39887394    -0.05900
C187        C  0.46962531  0.32742786  0.41017809    -0.21000
C188        C  0.48967733  0.32800768  0.42248894     0.24700
C189        C  0.51198586  0.30558475  0.42324532    -0.18600
C190        C  0.51419934  0.28349911  0.41186327    -0.08500
C191        C  0.48632101  0.35263581  0.43398230    -0.18800
C192        C  0.50506119  0.35752293  0.44578157    -0.23600
C193        C  0.50237319  0.38354244  0.45646984     0.26800
C194        C  0.52747351  0.39167756  0.46515997    -0.20400
C195        C  0.52653889  0.41652769  0.47495291    -0.10000
C196        C  0.50050509  0.43401014  0.47619788    -0.10600
C197        C  0.47499246  0.42531576  0.46798561    -0.03500
C198        C  0.47581749  0.40028180  0.45826395    -0.18600
H199        H  0.45585664  0.30582721  0.38957173     0.10500
H200        H  0.45218918  0.34425955  0.40923963     0.10500
H201        H  0.52782787  0.30466336  0.43251136     0.10200
H202        H  0.53156923  0.26661204  0.41277795     0.11300
H203        H  0.46804383  0.36821099  0.43211071     0.11400
H204        H  0.52426688  0.34305493  0.44736274     0.13300
H205        H  0.54807022  0.37898958  0.46421945     0.09800
H206        H  0.54627814  0.42226909  0.48148266     0.11900
H207        H  0.45452735  0.43821399  0.46891417     0.08500
H208        H  0.45555620  0.39424043  0.45229852     0.11300
C209        C  0.98641665  0.19684392  0.39979516    -0.03300
C210        C  0.96224011  0.19340021  0.40990091    -0.05900
C211        C  0.96292984  0.17150747  0.42135499    -0.21000
C212        C  0.98782565  0.15260257  0.42312597     0.24700
C213        C  0.01217839  0.15607532  0.41306853    -0.18600
C214        C  0.01145333  0.17798037  0.40155363    -0.08500
C215        C  0.98659424  0.12898714  0.43520036    -0.18800
C216        C  0.01050979  0.11386319  0.44057666    -0.23600
C217        C  0.00827020  0.09006828  0.45252628     0.26800
C218        C  0.03095888  0.06828563  0.45351742    -0.20400
C219        C  0.02938372  0.04521496  0.46438180    -0.10000
C220        C  0.00509214  0.04353233  0.47449412    -0.10600
C221        C  0.98290523  0.06582049  0.47389596    -0.03500
C222        C  0.98444815  0.08888127  0.46305287    -0.18600
H223        H  0.94254363  0.20742447  0.40889411     0.10500
H224        H  0.94380045  0.16928510  0.42886456     0.10500
H225        H  0.03154515  0.14160715  0.41373414     0.10200
H226        H  0.03043716  0.17991119  0.39393667     0.11300
H227        H  0.96464522  0.12393867  0.43979071     0.11400
H228        H  0.03251559  0.11832939  0.43591875     0.13300
H229        H  0.04973944  0.06886291  0.44570808     0.09800
H230        H  0.04689228  0.02837896  0.46475316     0.11900
H231        H  0.96439810  0.06539994  0.48187491     0.08500
H232        H  0.96716274  0.10588521  0.46317386     0.11300
C233        C  0.17614308  0.23859245  0.27582480    -0.03300
C234        C  0.15452540  0.21564679  0.27507164    -0.05900
C235        C  0.13066532  0.21508867  0.28544703    -0.21000
C236        C  0.12843117  0.23692332  0.29701026     0.24700
C237        C  0.15041604  0.25953000  0.29793380    -0.18600
C238        C  0.17388853  0.26044210  0.28739261    -0.08500
C239        C  0.10235289  0.23645990  0.30753873    -0.18800
C240        C  0.10421073  0.24555452  0.32217240    -0.23600
C241        C  0.07851675  0.24454559  0.33287900     0.26800
C242        C  0.08373461  0.23715742  0.34820382    -0.20400
C243        C  0.06014586  0.23610806  0.35865455    -0.10000
C244        C  0.03092804  0.24338308  0.35410331    -0.10600
C245        C  0.02574532  0.25158825  0.33883368    -0.03500
C246        C  0.04929808  0.25185169  0.32825426    -0.18600
H247        H  0.15555283  0.19870870  0.26617537     0.10500
H248        H  0.11389169  0.19757120  0.28444487     0.10500
H249        H  0.14902157  0.27708867  0.30649187     0.10200
H250        H  0.19018853  0.27844165  0.28821247     0.11300
H251        H  0.08151265  0.22695162  0.30336666     0.11400
H252        H  0.12579097  0.25204964  0.32680380     0.13300
H253        H  0.10609956  0.23174640  0.35205062     0.09800
H254        H  0.06483293  0.22993435  0.37037485     0.11900
H255        H  0.00343135  0.25729422  0.33503363     0.08500
H256        H  0.04476525  0.25825646  0.31655562     0.11300
C257        C  0.30844517  0.23589024  0.27421145    -0.03300
C258        C  0.31989770  0.20701596  0.27734196    -0.05900
C259        C  0.34295695  0.20321219  0.28792843    -0.21000
C260        C  0.35484256  0.22808265  0.29573680     0.24700
C261        C  0.34384083  0.25707160  0.29235776    -0.18600
C262        C  0.32082567  0.26088613  0.28176103    -0.08500
C263        C  0.37893559  0.22313593  0.30714315    -0.18800
C264        C  0.38302112  0.24170012  0.31912998    -0.23600
C265        C  0.40661522  0.23824011  0.33096392     0.26800
C266        C  0.40499423  0.25698818  0.34382681    -0.20400
C267        C  0.42706632  0.25614773  0.35502046    -0.10000
C268        C  0.45154970  0.23647462  0.35369235    -0.10600
C269        C  0.45307294  0.21721929  0.34095299    -0.03500
C270        C  0.43089346  0.21813810  0.32964933    -0.18600
H271        H  0.31103851  0.18729622  0.27161881     0.10500
H272        H  0.35125913  0.18071198  0.29018278     0.10500
H273        H  0.35319769  0.27694962  0.29769083     0.10200
H274        H  0.31279831  0.28345875  0.27945637     0.11300
H275        H  0.39238039  0.20295734  0.30595697     0.11400
H276        H  0.36761272  0.26034339  0.32068689     0.13300
H277        H  0.38663715  0.27268461  0.34518211     0.09800
H278        H  0.42495428  0.27122030  0.36469037     0.11900
H279        H  0.47166192  0.20183896  0.33956813     0.08500
H280        H  0.43335747  0.20355118  0.31984949     0.11300
C281        C  0.30621821  0.25653715  0.20936944    -0.03300
C282        C  0.31644273  0.28537780  0.20516608    -0.05900
C283        C  0.33933075  0.28874161  0.19438511    -0.21000
C284        C  0.35245204  0.26343899  0.18746773     0.24700
C285        C  0.34248786  0.23453393  0.19183948    -0.18600
C286        C  0.31955281  0.23117690  0.20258555    -0.08500
C287        C  0.37680477  0.26806793  0.17604272    -0.18800
C288        C  0.38390734  0.24741202  0.16534252    -0.23600
C289        C  0.40753666  0.25125214  0.15347978     0.26800
C290        C  0.40748593  0.23118928  0.14110588    -0.20400
C291        C  0.42941169  0.23282322  0.12981320    -0.10000
C292        C  0.45229094  0.25455429  0.13056556    -0.10600
C293        C  0.45242484  0.27484861  0.14291812    -0.03500
C294        C  0.43032866  0.27319350  0.15429887    -0.18600
H295        H  0.30680921  0.30541607  0.21023373     0.10500
H296        H  0.34669561  0.31124530  0.19136736     0.10500
H297        H  0.35264359  0.21435293  0.18726150     0.10200
H298        H  0.31251910  0.20863634  0.20571547     0.11300
H299        H  0.38800663  0.28976219  0.17604562     0.11400
H300        H  0.37083593  0.22684139  0.16469272     0.13300
H301        H  0.39036300  0.21399546  0.14016164     0.09800
H302        H  0.42843150  0.21676683  0.12051019     0.11900
H303        H  0.46980727  0.29173770  0.14391036     0.08500
H304        H  0.43164886  0.28871250  0.16379150     0.11300
C305        C  0.02987757  0.25615801  0.13282301    -0.03300
C306        C  0.05871258  0.26631063  0.12900825    -0.05900
C307        C  0.08193012  0.26466369  0.13959901    -0.21000
C308        C  0.07659284  0.25376993  0.15435107     0.24700
C309        C  0.04778629  0.24375545  0.15828589    -0.18600
C310        C  0.02465789  0.24460670  0.14752608    -0.08500
C311        C  0.10177404  0.25176744  0.16518654    -0.18800
C312        C  0.09943147  0.26049594  0.17982702    -0.23600
C313        C  0.12513329  0.25874994  0.19041065     0.26800
C314        C  0.13027350  0.28208353  0.20090676    -0.20400
C315        C  0.15450201  0.28062575  0.21098982    -0.10000
C316        C  0.17346093  0.25537079  0.21099556    -0.10600
C317        C  0.16798280  0.23186916  0.20059344    -0.03500
C318        C  0.14419940  0.23362590  0.19033788    -0.18600
H319        H  0.06344938  0.27514340  0.11773188     0.10500
H320        H  0.10405624  0.27224557  0.13633132     0.10500
H321        H  0.04335336  0.23475781  0.16955846     0.10200
H322        H  0.00264916  0.23665941  0.15075624     0.11300
H323        H  0.12336852  0.24477835  0.16073403     0.11400
H324        H  0.07877307  0.27060161  0.18387816     0.13300
H325        H  0.11569774  0.30156543  0.20118803     0.09800
H326        H  0.15803399  0.29892834  0.21897762     0.11900
H327        H  0.18211347  0.21205859  0.20037311     0.08500
H328        H  0.14036004  0.21505275  0.18254871     0.11300
C329        C  0.00913327  0.77384049  0.58178875    -0.03300
C330        C  0.03179370  0.77601224  0.57070150    -0.05900
C331        C  0.03147479  0.79923917  0.55990169    -0.21000
C332        C  0.00872618  0.82100976  0.55999727     0.24700
C333        C  0.98550999  0.81830512  0.57077164    -0.18600
C334        C  0.98577774  0.79504314  0.58154814    -0.08500
C335        C  0.00991222  0.84587155  0.54859768    -0.18800
C336        C  0.99629969  0.87271702  0.55058238    -0.23600
C337        C  0.99792485  0.89789678  0.53938868     0.26800
C338        C  0.97546850  0.92001621  0.53965274    -0.20400
C339        C  0.97619075  0.94425838  0.52944988    -0.10000
C340        C  0.99973563  0.94714990  0.51897746    -0.10600
C341        C  0.02240431  0.92530189  0.51876452    -0.03500
C342        C  0.02159633  0.90093062  0.52888210    -0.18600
H343        H  0.05002601  0.75998243  0.57045528     0.10500
H344        H  0.04942268  0.80054213  0.55161377     0.10500
H345        H  0.96692707  0.83386207  0.57089194     0.10200
H346        H  0.96775753  0.79389060  0.58979015     0.11300
H347        H  0.02315109  0.84194544  0.53840880     0.11400
H348        H  0.98309697  0.87665269  0.56078033     0.13300
H349        H  0.95716802  0.91840973  0.54772159     0.09800
H350        H  0.95858224  0.96098303  0.52984087     0.11900
H351        H  0.04077299  0.92716507  0.51075112     0.08500
H352        H  0.03984315  0.88498462  0.52859582     0.11300
C353        C  0.48128779  0.71128334  0.57926528    -0.03300
C354        C  0.45640451  0.70631543  0.56978553    -0.05900
C355        C  0.45660950  0.68301115  0.55897915    -0.21000
C356        C  0.48156627  0.66404838  0.55743193     0.24700
C357        C  0.50680190  0.66964472  0.56659929    -0.18600
C358        C  0.50656620  0.69282418  0.57741147    -0.08500
C359        C  0.48063970  0.63913177  0.54599444    -0.18800
C360        C  0.49840269  0.61458535  0.54673476    -0.23600
C361        C  0.49804307  0.58929091  0.53553663     0.26800
C362        C  0.52267847  0.56966681  0.53517743    -0.20400
C363        C  0.52314737  0.54488162  0.52532425    -0.10000
C364        C  0.49876700  0.53891516  0.51575421    -0.10600
C365        C  0.47420752  0.55860797  0.51590543    -0.03500
C366        C  0.47373957  0.58350999  0.52573640    -0.18600
H367        H  0.43659495  0.72017393  0.57082748     0.10500
H368        H  0.43700467  0.67950333  0.55195100     0.10500
H369        H  0.52701313  0.65653441  0.56540136     0.10200
H370        H  0.52632250  0.69624278  0.58433078     0.11300
H371        H  0.46439428  0.64110311  0.53688025     0.11400
H372        H  0.51430725  0.61261009  0.55600414     0.13300
H373        H  0.54164191  0.57345759  0.54261667     0.09800
H374        H  0.54228921  0.52994732  0.52539805     0.11900
H375        H  0.45522165  0.55446158  0.50853262     0.08500
H376        H  0.45402558  0.59755500  0.52583003     0.11300
C377        C  0.80549413  0.73652142  0.69747445    -0.03300
C378        C  0.80668350  0.70994602  0.68873226    -0.05900
C379        C  0.82801480  0.70662016  0.67714521    -0.21000
C380        C  0.84911271  0.72937969  0.67435741     0.24700
C381        C  0.84802249  0.75595483  0.68309143    -0.18600
C382        C  0.82627291  0.75958239  0.69444880    -0.08500
C383        C  0.87133565  0.72543869  0.66192332    -0.18800
C384        C  0.89992821  0.73447147  0.66331114    -0.23600
C385        C  0.92230681  0.73076605  0.65092628     0.26800
C386        C  0.95208995  0.72423508  0.65469228    -0.20400
C387        C  0.97395082  0.72209824  0.64328842    -0.10000
C388        C  0.96658647  0.72750139  0.62795123    -0.10600
C389        C  0.93678080  0.73411800  0.62417408    -0.03500
C390        C  0.91476540  0.73539978  0.63552593    -0.18600
H391        H  0.79090803  0.69183696  0.69073896     0.10500
H392        H  0.82830525  0.68605647  0.67046749     0.10500
H393        H  0.86364977  0.77413661  0.68095997     0.10200
H394        H  0.82592331  0.78032700  0.70097364     0.11300
H395        H  0.86440772  0.71336630  0.65172337     0.11400
H396        H  0.90755644  0.74365451  0.67413499     0.13300
H397        H  0.95844226  0.72083010  0.66649835     0.09800
H398        H  0.99681222  0.71728343  0.64651726     0.11900
H399        H  0.93055070  0.73846716  0.61243127     0.08500
H400        H  0.89208909  0.74104200  0.63231586     0.11300
C401        C  0.81118749  0.73857998  0.76404453    -0.03300
C402        C  0.81803528  0.71030001  0.77037775    -0.05900
C403        C  0.84010892  0.70752826  0.78157780    -0.21000
C404        C  0.85613046  0.73283444  0.78666910     0.24700
C405        C  0.84933893  0.76121378  0.78032152    -0.18600
C406        C  0.82716127  0.76399887  0.76911962    -0.08500
C407        C  0.87865943  0.72865864  0.79903417    -0.18800
C408        C  0.90061598  0.74854721  0.80222292    -0.23600
C409        C  0.92289944  0.74429843  0.81469942     0.26800
C410        C  0.94967956  0.76077843  0.81414652    -0.20400
C411        C  0.97084034  0.75834923  0.82582788    -0.10000
C412        C  0.96569126  0.73944202  0.83845811    -0.10600
C413        C  0.93890229  0.72285564  0.83902040    -0.03500
C414        C  0.91768735  0.72534281  0.82733826    -0.18600
H415        H  0.80611678  0.69025197  0.76679494     0.10500
H416        H  0.84464980  0.68543989  0.78631556     0.10500
H417        H  0.86047866  0.78146534  0.78417538     0.10200
H418        H  0.82232403  0.78614456  0.76454588     0.11300
H419        H  0.87760750  0.70764749  0.80534901     0.11400
H420        H  0.90331540  0.76833228  0.79507478     0.13300
H421        H  0.95425479  0.77568658  0.80462694     0.09800
H422        H  0.99118643  0.77148217  0.82497604     0.11900
H423        H  0.93403260  0.70829510  0.84863113     0.08500
H424        H  0.89701206  0.71292619  0.82850620     0.11300
C425        C  0.53748638  0.75085679  0.84658266    -0.03300
C426        C  0.53347794  0.72962655  0.83483177    -0.05900
C427        C  0.55371514  0.72790217  0.82269350    -0.21000
C428        C  0.57839858  0.74739885  0.82189848     0.24700
C429        C  0.58252418  0.76865654  0.83366613    -0.18600
C430        C  0.56222330  0.77041747  0.84582353    -0.08500
C431        C  0.59980646  0.74379618  0.80897760    -0.18800
C432        C  0.61934550  0.76521826  0.80447514    -0.23600
C433        C  0.64072980  0.76114407  0.79156947     0.26800
C434        C  0.65273092  0.78679466  0.78441835    -0.20400
C435        C  0.67323877  0.78397485  0.77241412    -0.10000
C436        C  0.68238161  0.75535651  0.76733362    -0.10600
C437        C  0.67061121  0.72966837  0.77458646    -0.03500
C438        C  0.65016259  0.73248574  0.78659642    -0.18600
H439        H  0.51471068  0.71419741  0.83499983     0.10500
H440        H  0.55005183  0.71118623  0.81386521     0.10500
H441        H  0.60167230  0.78353647  0.83376836     0.10200
H442        H  0.56615623  0.78689204  0.85472825     0.11300
H443        H  0.59841217  0.72290975  0.80256503     0.11400
H444        H  0.61897705  0.78714426  0.80996417     0.13300
H445        H  0.64611014  0.80914184  0.78809306     0.09800
H446        H  0.68192946  0.80423395  0.76712042     0.11900
H447        H  0.67741844  0.70728294  0.77108089     0.08500
H448        H  0.64235635  0.71212942  0.79210220     0.11300
C449        C  0.52859688  0.76011202  0.62361097    -0.03300
C450        C  0.55702822  0.74926119  0.61954662    -0.05900
C451        C  0.58086151  0.75095319  0.62983459    -0.21000
C452        C  0.57662206  0.76269804  0.64454568     0.24700
C453        C  0.54821784  0.77357875  0.64866466    -0.18600
C454        C  0.52450368  0.77254741  0.63823835    -0.08500
C455        C  0.60234209  0.76382280  0.65523452    -0.18800
C456        C  0.59948696  0.75802917  0.67024585    -0.23600
C457        C  0.62550432  0.75663228  0.68073185     0.26800
C458        C  0.62579818  0.73483258  0.69232453    -0.20400
C459        C  0.65004543  0.73270081  0.70232592    -0.10000
C460        C  0.67408680  0.75299360  0.70125575    -0.10600
C461        C  0.67350864  0.77535053  0.68988999    -0.03500
C462        C  0.64958395  0.77694494  0.67958949    -0.18600
H463        H  0.56095437  0.73975382  0.60833042     0.10500
H464        H  0.60259079  0.74261084  0.62638128     0.10500
H465        H  0.54445356  0.78327849  0.65984864     0.10200
H466        H  0.50286782  0.78110559  0.64169506     0.11300
H467        H  0.62451857  0.76699434  0.65042363     0.11400
H468        H  0.57775614  0.75160470  0.67474995     0.13300
H469        H  0.60740025  0.71909924  0.69349244     0.09800
H470        H  0.64978259  0.71544509  0.71107570     0.11900
H471        H  0.69173442  0.79130881  0.68885091     0.08500
H472        H  0.64966550  0.79434863  0.67092197     0.11300
C473        C  0.98297655  0.46425189  0.01558895    -0.03300
C474        C  0.95795342  0.44516715  0.01500347    -0.05900
C475        C  0.95540617  0.42080452  0.02504201    -0.21000
C476        C  0.97792985  0.41481507  0.03576403     0.24700
C477        C  0.00301698  0.43405451  0.03633483    -0.18600
C478        C  0.00556806  0.45837280  0.02625699    -0.08500
C479        C  0.97380004  0.38914488  0.04651170    -0.18800
C480        C  0.99654059  0.37578481  0.05395778    -0.23600
C481        C  0.99262425  0.35126895  0.06536045     0.26800
C482        C  0.01529138  0.34692265  0.07616590    -0.20400
C483        C  0.01284282  0.32440664  0.08721199    -0.10000
C484        C  0.98771103  0.30534272  0.08766032    -0.10600
C485        C  0.96513351  0.30931898  0.07668763    -0.03500
C486        C  0.96754805  0.33203299  0.06562815    -0.18600
H487        H  0.94033830  0.44920376  0.00678269     0.10500
H488        H  0.93578350  0.40653460  0.02441063     0.10500
H489        H  0.02039947  0.43102280  0.04474998     0.10200
H490        H  0.02487007  0.47305614  0.02701283     0.11300
H491        H  0.95113089  0.38121863  0.04830448     0.11400
H492        H  0.01920291  0.38361643  0.05206534     0.13300
H493        H  0.03491684  0.36125404  0.07616929     0.09800
H494        H  0.03077784  0.32200288  0.09541146     0.11900
H495        H  0.94559744  0.29489150  0.07662707     0.08500
H496        H  0.94998267  0.33404658  0.05722506     0.11300
C497        C  0.99050593  0.56273520  0.97236074    -0.03300
C498        C  0.01345205  0.58428321  0.97299863    -0.05900
C499        C  0.01566379  0.60666699  0.96180225    -0.21000
C500        C  0.99509829  0.60792326  0.94969666     0.24700
C501        C  0.97149517  0.58683008  0.94939937    -0.18600
C502        C  0.96928085  0.56449322  0.96063234    -0.08500
C503        C  0.99904305  0.63168752  0.93779897    -0.18800
C504        C  0.98663769  0.63041072  0.92376622    -0.23600
C505        C  0.99133676  0.65351591  0.91162521     0.26800
C506        C  0.97107337  0.65462105  0.89940343    -0.20400
C507        C  0.97498305  0.67515571  0.88744233    -0.10000
C508        C  0.99946961  0.69504172  0.88733390    -0.10600
C509        C  0.01986836  0.69389242  0.89954307    -0.03500
C510        C  0.01592763  0.67336421  0.91152485    -0.18600
H511        H  0.02987118  0.58352049  0.98207015     0.10500
H512        H  0.03383637  0.62276810  0.96245957     0.10500
H513        H  0.95451040  0.58746858  0.94064813     0.10200
H514        H  0.95128731  0.54818267  0.96002044     0.11300
H515        H  0.01336098  0.65055174  0.94073061     0.11400
H516        H  0.97230813  0.61157784  0.92082177     0.13300
H517        H  0.95206325  0.63948320  0.89909893     0.09800
H518        H  0.95883579  0.67530721  0.87824440     0.11900
H519        H  0.03911319  0.70870738  0.89981042     0.08500
H520        H  0.03262260  0.67276445  0.92042558     0.11300
C521        C  0.06198271  0.68951862  0.60668110    -0.03300
C522        C  0.08566950  0.69238699  0.59619607    -0.05900
C523        C  0.10981775  0.67237114  0.59649207    -0.21000
C524        C  0.11109160  0.64899153  0.60727592     0.24700
C525        C  0.08733838  0.64606047  0.61777967    -0.18600
C526        C  0.06320684  0.66616426  0.61751324    -0.08500
C527        C  0.13681056  0.62752865  0.60664788    -0.18800
C528        C  0.14429564  0.60878198  0.61815353    -0.23600
C529        C  0.16883812  0.58602106  0.61748578     0.26800
C530        C  0.16907856  0.56327531  0.62860853    -0.20400
C531        C  0.19127445  0.54119738  0.62868323    -0.10000
C532        C  0.21414592  0.54123807  0.61764841    -0.10600
C533        C  0.21423879  0.56417647  0.60655308    -0.03500
C534        C  0.19186437  0.58637371  0.60646393    -0.18600
H535        H  0.08556234  0.71005838  0.58766810     0.10500
H536        H  0.12758762  0.67513530  0.58819532     0.10500
H537        H  0.08669754  0.62792942  0.62600535     0.10200
H538        H  0.04526498  0.66307572  0.62567330     0.11300
H539        H  0.14977793  0.62726981  0.59618868     0.11400
H540        H  0.13148089  0.60943109  0.62865479     0.13300
H541        H  0.15180873  0.56241150  0.63728119     0.09800
H542        H  0.19038887  0.52402964  0.63745995     0.11900
H543        H  0.23161700  0.56503725  0.59794920     0.08500
H544        H  0.19306904  0.60381845  0.59787745     0.11300
C545        C  0.30630394  0.49386412  0.59685280    -0.03300
C546        C  0.32969404  0.47294256  0.59859273    -0.05900
C547        C  0.35332970  0.47199126  0.58816130    -0.21000
C548        C  0.35407809  0.49158932  0.57560590     0.24700
C549        C  0.33086701  0.51273859  0.57387427    -0.18600
C550        C  0.30725821  0.51385320  0.58439448    -0.08500
C551        C  0.37988156  0.48984766  0.56490422    -0.18800
C552        C  0.37849853  0.49840777  0.55016055    -0.16400
C553        C  0.40409357  0.49566395  0.53938001     0.26800
C554        C  0.39820250  0.49307099  0.52368960    -0.20400
C555        C  0.42160092  0.49074493  0.51315721    -0.10000
C556        C  0.45142361  0.49145516  0.51808165    -0.10600
C557        C  0.45744433  0.49411852  0.53376050    -0.03500
C558        C  0.43404176  0.49636409  0.54431455    -0.18600
H559        H  0.32989229  0.45729563  0.60807996     0.10500
H560        H  0.37102506  0.45566995  0.58985071     0.10500
H561        H  0.33110022  0.52881788  0.56458999     0.10200
H562        H  0.28976416  0.53038480  0.58275379     0.11300
H563        H  0.40017664  0.47942530  0.56915522     0.11400
H564        H  0.35735902  0.50608908  0.54550700     0.13300
H565        H  0.37538545  0.49267869  0.51957191     0.09800
H566        H  0.41645075  0.48880413  0.50111395     0.11900
H567        H  0.48029085  0.49456837  0.53782369     0.08500
H568        H  0.43953463  0.49916252  0.55625589     0.11300
C569        C  0.28688978  0.95172865  0.61784811    -0.03300
C570        C  0.31101314  0.95204781  0.62812491    -0.05900
C571        C  0.33424868  0.93118238  0.62675332    -0.21000
C572        C  0.33395827  0.90928478  0.61517779     0.24700
C573        C  0.31006355  0.90919865  0.60471417    -0.18600
C574        C  0.28679757  0.93014763  0.60606926    -0.08500
C575        C  0.35933586  0.88759253  0.61435395    -0.18800
C576        C  0.35840660  0.86102486  0.60685230    -0.23600
C577        C  0.38386138  0.83938767  0.60640131     0.26800
C578        C  0.38531079  0.81835847  0.59443659    -0.20400
C579        C  0.40880073  0.79760627  0.59356478    -0.10000
C580        C  0.43136649  0.79724260  0.60473530    -0.10600
C581        C  0.42959415  0.81791592  0.61688716    -0.03500
C582        C  0.40610062  0.83864281  0.61775929    -0.18600
H583        H  0.31199415  0.96840532  0.63729300     0.10500
H584        H  0.35245005  0.93199556  0.63489271     0.10500
H585        H  0.30931342  0.89340110  0.59532572     0.10200
H586        H  0.26873935  0.92940940  0.59785623     0.11300
H587        H  0.37948805  0.89383950  0.62045792     0.11400
H588        H  0.33846746  0.85472326  0.60059530     0.13300
H589        H  0.36833921  0.81818344  0.58562346     0.09800
H590        H  0.40933845  0.78198326  0.58406460     0.11900
H591        H  0.44633525  0.81806573  0.62580603     0.08500
H592        H  0.40529970  0.85361397  0.62749406     0.11300
C593        C  0.04971797  0.99163587  0.51917680    -0.03300
C594        C  0.07965074  0.98875044  0.51466710    -0.05900
C595        C  0.10239467  0.98779099  0.52559734    -0.21000
C596        C  0.09576893  0.99008449  0.54124833     0.24700
C597        C  0.06565117  0.99294943  0.54573928    -0.18600
C598        C  0.04293298  0.99387814  0.53479336    -0.08500
C599        C  0.12083767  0.98843160  0.55240854    -0.18800
C600        C  0.11887897  0.99755261  0.56707582    -0.23600
C601        C  0.14416918  0.99597040  0.57810193     0.26800
C602        C  0.14334213  0.01431272  0.59116405    -0.20400
C603        C  0.16658188  0.01362328  0.60182597    -0.10000
C604        C  0.19117416  0.99431580  0.59974967    -0.10600
C605        C  0.19173835  0.97549611  0.58682468    -0.03500
C606        C  0.16850784  0.97622212  0.57615055    -0.18600
H607        H  0.08536842  0.98691985  0.50268189     0.10500
H608        H  0.12531028  0.98533075  0.52179694     0.10500
H609        H  0.05932278  0.99397785  0.55763783     0.10200
H610        H  0.01997169  0.99634044  0.53851580     0.11300
H611        H  0.14212001  0.98046999  0.54806271     0.11400
H612        H  0.09843426  0.00796073  0.57112163     0.13300
H613        H  0.12473624  0.02947549  0.59306925     0.09800
H614        H  0.16524105  0.02828584  0.61169142     0.11900
H615        H  0.21017334  0.96014653  0.58491338     0.08500
H616        H  0.16960907  0.96091411  0.56656018     0.11300
C617        C  0.23200089  0.31414568  0.72419212    -0.03300
C618        C  0.20498614  0.32594524  0.71864094    -0.05900
C619        C  0.20501134  0.34725574  0.70687399    -0.21000
C620        C  0.23196038  0.35703282  0.70030191     0.24700
C621        C  0.25904846  0.34572796  0.70609830    -0.18600
C622        C  0.25902798  0.32445821  0.71786615    -0.08500
C623        C  0.23092986  0.37966911  0.68779101    -0.18800
C624        C  0.25308899  0.38331424  0.67750117    -0.23600
C625        C  0.25267696  0.40622915  0.66508098     0.26800
C626        C  0.27303326  0.40324741  0.65295488    -0.20400
C627        C  0.27435968  0.42485025  0.64134071    -0.10000
C628        C  0.25531524  0.45002938  0.64159399    -0.10600
C629        C  0.23482785  0.45296193  0.65368866    -0.03500
C630        C  0.23362061  0.43146927  0.66534052    -0.18600
H631        H  0.18378770  0.31861761  0.72333098     0.10500
H632        H  0.18385664  0.35589170  0.70276883     0.10500
H633        H  0.28034925  0.35349749  0.70177578     0.10200
H634        H  0.28025505  0.31607391  0.72199672     0.11300
H635        H  0.21056620  0.39271263  0.68673651     0.11400
H636        H  0.27218074  0.36826964  0.67782045     0.13300
H637        H  0.28810409  0.38416313  0.65249329     0.09800
H638        H  0.29038193  0.42183371  0.63219262     0.11900
H639        H  0.21999578  0.47220374  0.65432972     0.08500
H640        H  0.21821070  0.43528466  0.67464561     0.11300
C641        C  0.22857686  0.18386799  0.72403900    -0.03300
C642        C  0.20105726  0.17086006  0.71997656    -0.05900
C643        C  0.19944258  0.14949495  0.70826006    -0.21000
C644        C  0.22523280  0.14052167  0.70032739     0.24700
C645        C  0.25278618  0.15380484  0.70429479    -0.18600
C646        C  0.25441601  0.17506641  0.71607594    -0.08500
C647        C  0.22213163  0.11802287  0.68776786    -0.18800
C648        C  0.24518381  0.10216500  0.68193416    -0.23600
C649        C  0.24239323  0.07949085  0.66943749     0.26800
C650        C  0.26649799  0.05992376  0.66679815    -0.20400
C651        C  0.26546891  0.03862360  0.65505142    -0.10000
C652        C  0.24029989  0.03643726  0.64552358    -0.10600
C653        C  0.21612557  0.05604522  0.64810389    -0.03500
C654        C  0.21714841  0.07738549  0.65988204    -0.18600
H655        H  0.18069519  0.17719944  0.72584274     0.10500
H656        H  0.17789224  0.13988516  0.70539788     0.10500
H657        H  0.27311354  0.14844950  0.69820798     0.10200
H658        H  0.27590846  0.18493715  0.71879766     0.11300
H659        H  0.19967042  0.11368352  0.68369458     0.11400
H660        H  0.26723617  0.10489629  0.68685993     0.13300
H661        H  0.28631843  0.06111204  0.67386928     0.09800
H662        H  0.28458109  0.02402839  0.65338174     0.11900
H663        H  0.19642804  0.05509366  0.64094638     0.08500
H664        H  0.19832971  0.09241501  0.66116973     0.11300
C665        C  0.29569731  0.56476851  0.88684131    -0.03300
C666        C  0.29166313  0.59048103  0.89602630    -0.05900
C667        C  0.31274895  0.61387422  0.89590146    -0.21000
C668        C  0.33822684  0.61221430  0.88655440     0.24700
C669        C  0.34249064  0.58623364  0.87757208    -0.18600
C670        C  0.32142713  0.56295976  0.87765363    -0.08500
C671        C  0.36045319  0.63728762  0.88688786    -0.18800
C672        C  0.37937123  0.64296840  0.87522182    -0.23600
C673        C  0.40312450  0.66659926  0.87518220     0.26800
C674        C  0.42395496  0.66621768  0.86318470    -0.20400
C675        C  0.44689064  0.68751719  0.86242255    -0.10000
C676        C  0.44962656  0.71001716  0.87363793    -0.10600
C677        C  0.42873866  0.71061093  0.88566057    -0.03500
C678        C  0.40571387  0.68918113  0.88644017    -0.18600
H679        H  0.27216101  0.59262442  0.90327503     0.10500
H680        H  0.30905068  0.63343809  0.90306595     0.10500
H681        H  0.36234643  0.58334731  0.87068225     0.10200
H682        H  0.32554355  0.54334867  0.87059109     0.11300
H683        H  0.36081097  0.65130400  0.89701768     0.11400
H684        H  0.37774521  0.62929371  0.86498317     0.13300
H685        H  0.42259573  0.64919628  0.85433288     0.09800
H686        H  0.46247192  0.68629294  0.85297497     0.11900
H687        H  0.43008885  0.72770169  0.89446767     0.08500
H688        H  0.39004420  0.69075674  0.89579186     0.11300
C689        C  0.04053520  0.51897170  0.97577354    -0.03300
C690        C  0.06844143  0.52264145  0.98283927    -0.05900
C691        C  0.09441530  0.52547231  0.97405046    -0.21000
C692        C  0.09304928  0.52411432  0.95805595     0.24700
C693        C  0.06500750  0.52041206  0.95099075    -0.18600
C694        C  0.03903944  0.51773431  0.95978477    -0.08500
C695        C  0.12111581  0.52704813  0.94906456    -0.18800
C696        C  0.12477365  0.51360878  0.93541620    -0.23600
C697        C  0.15281845  0.51483865  0.92634926     0.26800
C698        C  0.15832754  0.49148306  0.91596461    -0.20400
C699        C  0.18357339  0.49199513  0.90664280    -0.10000
C700        C  0.20394028  0.51616142  0.90729375    -0.10600
C701        C  0.19860792  0.53959740  0.91778100    -0.03500
C702        C  0.17326019  0.53896228  0.92723940    -0.18600
H703        H  0.07002833  0.52376136  0.99516743     0.10500
H704        H  0.11567751  0.52846849  0.97975898     0.10500
H705        H  0.06295341  0.52009113  0.93868438     0.10200
H706        H  0.01772301  0.51486859  0.95411687     0.11300
H707        H  0.13976485  0.53884731  0.95428219     0.11400
H708        H  0.10698868  0.49938482  0.93101236     0.13300
H709        H  0.14293278  0.47269862  0.91501805     0.09800
H710        H  0.18684260  0.47346636  0.89876465     0.11900
H711        H  0.21373721  0.55861134  0.91852550     0.08500
H712        H  0.16935667  0.55770514  0.93489336     0.11300
C713        C  0.25772845  0.46974521  0.86456801    -0.03300
C714        C  0.27906239  0.47060901  0.85278032    -0.05900
C715        C  0.27975092  0.44796208  0.84163271    -0.21000
C716        C  0.25909225  0.42409415  0.84196978     0.24700
C717        C  0.23833766  0.42278782  0.85402715    -0.18600
C718        C  0.23759290  0.44538739  0.86511544    -0.08500
C719        C  0.26025973  0.40065433  0.82981378    -0.18800
C720        C  0.23667025  0.38318344  0.82609528    -0.23600
C721        C  0.23722517  0.35976194  0.81393574     0.26800
C722        C  0.20992336  0.34969193  0.80791919    -0.20400
C723        C  0.20917423  0.32744265  0.79663191    -0.10000
C724        C  0.23578034  0.31455754  0.79113351    -0.10600
C725        C  0.26314138  0.32432272  0.79727064    -0.03500
C726        C  0.26389011  0.34660122  0.80859145    -0.18600
H727        H  0.29499815  0.48894242  0.85204774     0.10500
H728        H  0.29623102  0.44931526  0.83258742     0.10500
H729        H  0.22282028  0.40420765  0.85511401     0.10200
H730        H  0.22111907  0.44369290  0.87414236     0.11300
H731        H  0.28080498  0.39890495  0.82329101     0.11400
H732        H  0.21536195  0.38699671  0.83169093     0.13300
H733        H  0.18903263  0.35919507  0.81191880     0.09800
H734        H  0.18769232  0.32037183  0.79220590     0.11900
H735        H  0.28401080  0.31460884  0.79339814     0.08500
H736        H  0.28534471  0.35295953  0.81325918     0.11300
C737        C  0.05746350  0.77705489  0.86322988    -0.03300
C738        C  0.06186691  0.79765812  0.85123481    -0.05900
C739        C  0.08555742  0.81820612  0.85164641    -0.21000
C740        C  0.10530453  0.81892104  0.86408481     0.24700
C741        C  0.10131386  0.79793099  0.87597238    -0.18600
C742        C  0.07763398  0.77729147  0.87554569    -0.08500
C743        C  0.12982804  0.84163524  0.86401109    -0.18800
C744        C  0.14395003  0.85144630  0.87668720    -0.23600
C745        C  0.16719606  0.87555359  0.87664067     0.26800
C746        C  0.18625291  0.87830153  0.88930931    -0.20400
C747        C  0.20758209  0.90139140  0.89003256    -0.10000
C748        C  0.21013401  0.92250203  0.87813221    -0.10600
C749        C  0.19111351  0.91969209  0.86543194    -0.03500
C750        C  0.16986594  0.89663838  0.86470176    -0.18600
H751        H  0.04691607  0.79807667  0.84152324     0.10500
H752        H  0.08822669  0.83392096  0.84227245     0.10500
H753        H  0.11654071  0.79700239  0.88553385     0.10200
H754        H  0.07511887  0.76156737  0.88491649     0.11300
H755        H  0.13565581  0.85115677  0.85300635     0.11400
H756        H  0.13819442  0.84182473  0.88768606     0.13300
H757        H  0.18454332  0.86257514  0.89873370     0.09800
H758        H  0.22173407  0.90294625  0.90002357     0.11900
H759        H  0.19229230  0.93560826  0.85607532     0.08500
H760        H  0.15513156  0.89614759  0.85494028     0.11300
C761        C  0.24843665  0.01828244  0.85766888    -0.03300
C762        C  0.23905034  0.01188889  0.84271642    -0.05900
C763        C  0.23860696  0.03459338  0.83165953    -0.21000
C764        C  0.24662721  0.06421947  0.83546879     0.24700
C765        C  0.25584123  0.07072119  0.85044577    -0.18600
C766        C  0.25699170  0.04786798  0.86141408    -0.08500
C767        C  0.24627469  0.08767971  0.82348116    -0.18800
C768        C  0.23771554  0.11620158  0.82626234    -0.23600
C769        C  0.23680972  0.13923550  0.81406123     0.26800
C770        C  0.21352816  0.16038084  0.81383813    -0.20400
C771        C  0.21208900  0.18208772  0.80227603    -0.10000
C772        C  0.23447224  0.18353756  0.79104388    -0.10600
C773        C  0.25814678  0.16279620  0.79149141    -0.03500
C774        C  0.25918857  0.14067475  0.80281916    -0.18600
H775        H  0.23257605  0.98921988  0.83950369     0.10500
H776        H  0.23168555  0.02910004  0.82013843     0.10500
H777        H  0.26273938  0.09329193  0.85359106     0.10200
H778        H  0.26433351  0.05338424  0.87286157     0.11300
H779        H  0.25144522  0.08083881  0.81185813     0.11400
H780        H  0.22940462  0.12231407  0.83750717     0.13300
H781        H  0.19621093  0.15978491  0.82248696     0.09800
H782        H  0.19378322  0.19804927  0.80226009     0.11900
H783        H  0.27572703  0.16351655  0.78298648     0.08500
H784        H  0.27774249  0.12501877  0.80292987     0.11300
C785        C  0.50613482  0.94949480  0.97095347    -0.03300
C786        C  0.50407438  0.91983928  0.97642407    -0.05900
C787        C  0.50163736  0.89566615  0.96622812    -0.21000
C788        C  0.50166313  0.90063040  0.95038728     0.24700
C789        C  0.50397618  0.93041559  0.94493657    -0.18600
C790        C  0.50643406  0.95452990  0.95512844    -0.08500
C791        C  0.49834221  0.87438750  0.93993830    -0.18800
C792        C  0.50835661  0.87445856  0.92542458    -0.23600
C793        C  0.50579053  0.84825987  0.91491030     0.26800
C794        C  0.52562754  0.84636627  0.90253880    -0.20400
C795        C  0.52368044  0.82264199  0.89209418    -0.10000
C796        C  0.50154771  0.80031930  0.89366057    -0.10600
C797        C  0.48157857  0.80221443  0.90604869    -0.03500
C798        C  0.48361509  0.82594876  0.91655023    -0.18600
H799        H  0.50361889  0.91548043  0.98859011     0.10500
H800        H  0.49968583  0.87299806  0.97072693     0.10500
H801        H  0.50319655  0.93534470  0.93285196     0.10200
H802        H  0.50806184  0.97725019  0.95066627     0.11300
H803        H  0.48876900  0.85392155  0.94466495     0.11400
H804        H  0.52047125  0.89396678  0.92120559     0.13300
H805        H  0.54278234  0.86333795  0.90094674     0.09800
H806        H  0.53941242  0.82201839  0.88269681     0.11900
H807        H  0.46412861  0.78554387  0.90755994     0.08500
H808        H  0.46736791  0.82705502  0.92568503     0.11300
C809        C  0.51142283  0.05236864  0.01166866    -0.03300
C810        C  0.53810792  0.06868196  0.01348242    -0.05900
C811        C  0.53903199  0.09406679  0.02295450    -0.21000
C812        C  0.51329862  0.10372182  0.03073165     0.24700
C813        C  0.48632529  0.08796687  0.02842133    -0.18600
C814        C  0.48550419  0.06246620  0.01909316    -0.08500
C815        C  0.51528711  0.13042253  0.04097884    -0.18800
C816        C  0.49598013  0.13511647  0.05256452    -0.23600
C817        C  0.49722426  0.16089488  0.06343298     0.26800
C818        C  0.47803618  0.16013691  0.07611311    -0.20400
C819        C  0.47796935  0.18348797  0.08677656    -0.10000
C820        C  0.49721458  0.20829992  0.08507959    -0.10600
C821        C  0.51631245  0.20934055  0.07232569    -0.03500
C822        C  0.51624676  0.18597771  0.06155496    -0.18600
H823        H  0.55821644  0.06181725  0.00753932     0.10500
H824        H  0.55996756  0.10604273  0.02431645     0.10500
H825        H  0.46565668  0.09531816  0.03361885     0.10200
H826        H  0.46456961  0.05049085  0.01771858     0.11300
H827        H  0.53406021  0.14549854  0.03930636     0.11400
H828        H  0.47872494  0.11847208  0.05472040     0.13300
H829        H  0.46302939  0.14125642  0.07784684     0.09800
H830        H  0.46296590  0.18187597  0.09645310     0.11900
H831        H  0.53123016  0.22828715  0.07061335     0.08500
H832        H  0.53097519  0.18796877  0.05183128     0.11300
C833        C  0.45991103  0.99786997  0.96986402    -0.03300
C834        C  0.45540803  0.02161196  0.95955121    -0.05900
C835        C  0.43172453  0.02064980  0.94917865    -0.21000
C836        C  0.41179169  0.99616168  0.94902166     0.24700
C837        C  0.41624188  0.97239823  0.95943960    -0.18600
C838        C  0.43999926  0.97336802  0.96980500    -0.08500
C839        C  0.38762182  0.99583929  0.93737448    -0.18800
C840        C  0.36229267  0.97945830  0.93857988    -0.23600
C841        C  0.33851216  0.97900873  0.92667283     0.26800
C842        C  0.31805514  0.95494641  0.92645667    -0.20400
C843        C  0.29584184  0.95325074  0.91522888    -0.10000
C844        C  0.29346711  0.97577419  0.90400758    -0.10600
C845        C  0.31342942  0.00028061  0.90449526    -0.03500
C846        C  0.33554332  0.00198404  0.91569620    -0.18600
H847        H  0.47052047  0.04070465  0.95938736     0.10500
H848        H  0.42895501  0.03914637  0.94122834     0.10500
H849        H  0.40194937  0.95273589  0.95945035     0.10200
H850        H  0.44295803  0.95489716  0.97774704     0.11300
H851        H  0.39116396  0.00994895  0.92743582     0.11400
H852        H  0.35884566  0.96528838  0.94851816     0.13300
H853        H  0.31954849  0.93712284  0.93487617     0.09800
H854        H  0.28073052  0.93416649  0.91527557     0.11900
H855        H  0.31209688  0.01827534  0.89616988     0.08500
H856        H  0.34990228  0.02158216  0.91572263     0.11300
C857        C  0.78563293  0.06662810  0.11849230    -0.03300
C858        C  0.80531926  0.06863513  0.13096185    -0.05900
C859        C  0.82707863  0.09127164  0.13156743    -0.21000
C860        C  0.82991700  0.11243188  0.11972713     0.24700
C861        C  0.80983822  0.11081221  0.10736306    -0.18600
C862        C  0.78806811  0.08812626  0.10674881    -0.08500
C863        C  0.85379257  0.13585146  0.12094297    -0.18800
C864        C  0.86384303  0.15247375  0.10908913    -0.23600
C865        C  0.88824384  0.17528211  0.11029191     0.26800
C866        C  0.89048278  0.19754540  0.09895350    -0.20400
C867        C  0.91350779  0.21889416  0.09927960    -0.10000
C868        C  0.93514268  0.21836147  0.11091355    -0.10600
C869        C  0.93298997  0.19600727  0.12226319    -0.03500
C870        C  0.90989215  0.17468030  0.12195390    -0.18600
H871        H  0.80407568  0.05260747  0.14026543     0.10500
H872        H  0.84199679  0.09205276  0.14129634     0.10500
H873        H  0.81042395  0.12710679  0.09820270     0.10200
H874        H  0.77308943  0.08751090  0.09705015     0.11300
H875        H  0.86372067  0.13900702  0.13212137     0.11400
H876        H  0.85389503  0.14960489  0.09790704     0.13300
H877        H  0.87430937  0.19843225  0.08976682     0.09800
H878        H  0.91446824  0.23564232  0.09029945     0.11900
H879        H  0.94937530  0.19471226  0.13132884     0.08500
H880        H  0.90965585  0.15740997  0.13065805     0.11300
C881        C  0.55283936  0.00019313  0.01578273    -0.03300
C882        C  0.54320245  0.00065735  0.03102705    -0.05900
C883        C  0.56394127  0.00070945  0.04294543    -0.21000
C884        C  0.59476810  0.00059445  0.03990806     0.24700
C885        C  0.60442717  0.99961697  0.02458901    -0.18600
C886        C  0.58359189  0.99929918  0.01264557    -0.08500
C887        C  0.61584862  0.00056338  0.05306323    -0.18800
C888        C  0.64443943  0.01009565  0.05225605    -0.23600
C889        C  0.66471910  0.01104167  0.06574018     0.26800
C890        C  0.68851789  0.03168324  0.06584555    -0.20400
C891        C  0.70770326  0.03365165  0.07842346    -0.10000
C892        C  0.70376682  0.01470610  0.09115897    -0.10600
C893        C  0.68040388  0.99346660  0.09087286    -0.03500
C894        C  0.66113877  0.99161084  0.07832299    -0.18600
H895        H  0.51955815  0.00105988  0.03368759     0.10500
H896        H  0.55585084  0.00114235  0.05460652     0.10500
H897        H  0.62793723  0.99863460  0.02176360     0.10200
H898        H  0.59143953  0.99876569  0.00094496     0.11300
H899        H  0.60674005  0.99403605  0.06406790     0.11400
H900        H  0.65286027  0.01934500  0.04161713     0.13300
H901        H  0.69202224  0.04667858  0.05624467     0.09800
H902        H  0.72558911  0.05010807  0.07815723     0.11900
H903        H  0.67685914  0.97829078  0.10038862     0.08500
H904        H  0.64373487  0.97467179  0.07847367     0.11300
C905        C  0.69221792  0.45230127  0.11281369    -0.03300
C906        C  0.67113285  0.45238044  0.12473513    -0.05900
C907        C  0.64880827  0.43034671  0.12547456    -0.21000
C908        C  0.64682389  0.40762980  0.11434538     0.24700
C909        C  0.66819378  0.40732072  0.10248445    -0.18600
C910        C  0.69050893  0.42943426  0.10173100    -0.08500
C911        C  0.62232494  0.38486359  0.11578144    -0.18800
C912        C  0.61533884  0.36435269  0.10497953    -0.23600
C913        C  0.59077038  0.34183427  0.10648079     0.26800
C914        C  0.59162637  0.31617740  0.09712653    -0.20400
C915        C  0.56871557  0.29481226  0.09761824    -0.10000
C916        C  0.54413544  0.29856591  0.10746476    -0.10600
C917        C  0.54319841  0.32422192  0.11689106    -0.03500
C918        C  0.56618739  0.34572020  0.11637041    -0.18600
H919        H  0.67172912  0.46956937  0.13351285     0.10500
H920        H  0.63286691  0.43118719  0.13478589     0.10500
H921        H  0.66822904  0.39009348  0.09378074     0.10200
H922        H  0.70648515  0.42852611  0.09244517     0.11300
H923        H  0.60953583  0.38520519  0.12630732     0.11400
H924        H  0.62825324  0.36331177  0.09453640     0.13300
H925        H  0.61015862  0.31262085  0.08935967     0.09800
H926        H  0.57032857  0.27531653  0.09021672     0.11900
H927        H  0.52447784  0.32795114  0.12450453     0.08500
H928        H  0.56414432  0.36557190  0.12345746     0.11300
C929        C  0.77798998  0.49987997  0.08624595    -0.03300
C930        C  0.77681736  0.47852661  0.07437384    -0.05900
C931        C  0.79722607  0.47978822  0.06223682    -0.21000
C932        C  0.81944076  0.50216175  0.06176689     0.24700
C933        C  0.82021314  0.52388665  0.07347205    -0.18600
C934        C  0.79984242  0.52267662  0.08556222    -0.08500
C935        C  0.84126056  0.50247463  0.04889957    -0.18800
C936        C  0.86909168  0.51378603  0.05034527    -0.23600
C937        C  0.89207930  0.51327643  0.03806249     0.26800
C938        C  0.92224823  0.51493517  0.04233313    -0.20400
C939        C  0.94480120  0.51483802  0.03132184    -0.10000
C940        C  0.93773872  0.51322995  0.01573502    -0.10600
C941        C  0.90758501  0.51234200  0.01133181    -0.03500
C942        C  0.88488211  0.51223959  0.02240369    -0.18600
H943        H  0.76018717  0.46077492  0.07445672     0.10500
H944        H  0.79593280  0.46295747  0.05329430     0.10500
H945        H  0.83626380  0.54213847  0.07326475     0.10200
H946        H  0.80125471  0.53974793  0.09437538     0.11300
H947        H  0.83483920  0.49136213  0.03835631     0.11400
H948        H  0.87623270  0.52218956  0.06139888     0.13300
H949        H  0.92843494  0.51609444  0.05427621     0.09800
H950        H  0.96789546  0.51601692  0.03497263     0.11900
H951        H  0.90167185  0.51135602  0.99935350     0.08500
H952        H  0.86185891  0.51180153  0.01866069     0.11300
C953        C  0.78918609  0.43722069  0.37238131    -0.03300
C954        C  0.81052926  0.43884274  0.36060784    -0.05900
C955        C  0.83284185  0.41687941  0.35925044    -0.21000
C956        C  0.83435872  0.39260231  0.36952381     0.24700
C957        C  0.81291710  0.39091441  0.38129487    -0.18600
C958        C  0.79061529  0.41288092  0.38265515    -0.08500
C959        C  0.85948047  0.37061734  0.36798555    -0.18800
C960        C  0.85988148  0.34315132  0.37463500    -0.23600
C961        C  0.88565088  0.32181345  0.37394981     0.26800
C962        C  0.88693713  0.29851800  0.38477446    -0.20400
C963        C  0.91075040  0.27815248  0.38491102    -0.10000
C964        C  0.93396430  0.28034313  0.37411788    -0.10600
C965        C  0.93243831  0.30325827  0.36304077    -0.03500
C966        C  0.90856212  0.32374196  0.36292542    -0.18600
H967        H  0.81020735  0.45723982  0.35248541     0.10500
H968        H  0.84911023  0.41895319  0.35013845     0.10500
H969        H  0.81355612  0.37323814  0.38977079     0.10200
H970        H  0.77467617  0.41091895  0.39191580     0.11300
H971        H  0.87846020  0.37780842  0.36119722     0.11400
H972        H  0.84079731  0.33592838  0.38133528     0.13300
H973        H  0.86957762  0.29626473  0.39333551     0.09800
H974        H  0.91098684  0.26076868  0.39358870     0.11900
H975        H  0.94978106  0.30550479  0.35448309     0.08500
H976        H  0.90814262  0.34072340  0.35408497     0.11300
C977        C  0.70246017  0.47932328  0.40018754    -0.03300
C978        C  0.70542920  0.45781928  0.41189027    -0.05900
C979        C  0.68456617  0.45644084  0.42380560    -0.21000
C980        C  0.66006871  0.47619252  0.42419593     0.24700
C981        C  0.65724877  0.49789122  0.41256831    -0.18600
C982        C  0.67814988  0.49938600  0.40072015    -0.08500
C983        C  0.63856332  0.47438172  0.43715284    -0.18800
C984        C  0.60996660  0.48371102  0.43610622    -0.23600
C985        C  0.58821082  0.48277178  0.44896320     0.26800
C986        C  0.55755499  0.48340142  0.44556149    -0.20400
C987        C  0.53625299  0.48364580  0.45723640    -0.10000
C988        C  0.54516696  0.48352547  0.47258862    -0.10600
C989        C  0.57576279  0.48332668  0.47608487    -0.03500
C990        C  0.59714233  0.48284554  0.46439059    -0.18600
H991        H  0.72396403  0.44213924  0.41190860     0.10500
H992        H  0.68746501  0.43974015  0.43270461     0.10500
H993        H  0.63929896  0.51420500  0.41270894     0.10200
H994        H  0.67521563  0.51637710  0.39197331     0.11300
H995        H  0.64631930  0.46392412  0.44762175     0.11400
H996        H  0.60157330  0.49142845  0.42516236     0.13300
H997        H  0.55004409  0.48370159  0.43380722     0.09800
H998        H  0.51274703  0.48414316  0.45430164     0.11900
H999        H  0.58305620  0.48342302  0.48787373     0.08500
H1000       H  0.62051774  0.48325694  0.46750202     0.11300
C1001       C  0.73732478  0.97752604  0.14161407    -0.03300
C1002       C  0.75590918  0.98038867  0.15447173    -0.05900
C1003       C  0.75479818  0.95921179  0.16626592    -0.21000
C1004       C  0.73499937  0.93468416  0.16563761     0.24700
C1005       C  0.71607890  0.93187853  0.15286902    -0.18600
C1006       C  0.71721299  0.95311683  0.14101306    -0.08500
C1007       C  0.73641910  0.91175401  0.17805074    -0.18800
C1008       C  0.71482991  0.89136837  0.18110236    -0.23600
C1009       C  0.71796804  0.86794986  0.19320931     0.26800
C1010       C  0.69224627  0.85569927  0.20002306    -0.20400
C1011       C  0.69454664  0.83314811  0.21117933    -0.10000
C1012       C  0.72268265  0.82211018  0.21564055    -0.10600
C1013       C  0.74838214  0.83422249  0.20871839    -0.03500
C1014       C  0.74608496  0.85674301  0.19761996    -0.18600
H1015       H  0.77165922  0.99884764  0.15538948     0.10500
H1016       H  0.76974628  0.96188795  0.17589854     0.10500
H1017       H  0.70099909  0.91294914  0.15173612     0.10200
H1018       H  0.70265345  0.95010467  0.13126157     0.11300
H1019       H  0.75612364  0.91231036  0.18526762     0.11400
H1020       H  0.69381651  0.89229686  0.17494990     0.13300
H1021       H  0.67030014  0.86367240  0.19673439     0.09800
H1022       H  0.67428442  0.82421569  0.21622049     0.11900
H1023       H  0.77039052  0.82605618  0.21174765     0.08500
H1024       H  0.76640512  0.86474306  0.19228167     0.11300
C1025       C  0.74030869  0.54293851  0.13444488    -0.03300
C1026       C  0.76216810  0.56570846  0.13374878    -0.05900
C1027       C  0.76350728  0.58811713  0.14495402    -0.21000
C1028       C  0.74294556  0.58852531  0.15706031     0.24700
C1029       C  0.72137205  0.56545019  0.15793988    -0.18600
C1030       C  0.72003541  0.54299633  0.14673063    -0.08500
C1031       C  0.74539841  0.61282083  0.16871975    -0.18800
C1032       C  0.72263108  0.62136466  0.17784095    -0.23600
C1033       C  0.72497781  0.64567420  0.18951785     0.26800
C1034       C  0.69858068  0.65857319  0.19523207    -0.20400
C1035       C  0.69960124  0.68076900  0.20657150    -0.10000
C1036       C  0.72712141  0.69053447  0.21249996    -0.10600
C1037       C  0.75357530  0.67771479  0.20677271    -0.03500
C1038       C  0.75255569  0.65542855  0.19548818    -0.18600
H1039       H  0.77827101  0.56632643  0.12451712     0.10500
H1040       H  0.78056306  0.60539237  0.14407992     0.10500
H1041       H  0.70576584  0.56427556  0.16735417     0.10200
H1042       H  0.70310279  0.52564446  0.14772961     0.11300
H1043       H  0.76642936  0.62495451  0.16919992     0.11400
H1044       H  0.70084732  0.61100948  0.17636816     0.13300
H1045       H  0.67702893  0.65138451  0.19093000     0.09800
H1046       H  0.67880733  0.69016469  0.21074261     0.11900
H1047       H  0.77513688  0.68451444  0.21120785     0.08500
H1048       H  0.77341658  0.64552173  0.19181421     0.11300
C1049       C  0.73955705  0.68388023  0.27849893    -0.03300
C1050       C  0.76803658  0.67353374  0.28276063    -0.05900
C1051       C  0.77115069  0.65011744  0.29333126    -0.21000
C1052       C  0.74595944  0.63661151  0.30001990     0.24700
C1053       C  0.71738401  0.64669951  0.29564251    -0.18600
C1054       C  0.71425914  0.67011462  0.28503031    -0.08500
C1055       C  0.75051390  0.61150700  0.31107820    -0.18800
C1056       C  0.73026639  0.60349889  0.32174960    -0.23600
C1057       C  0.73496274  0.57865074  0.33295156     0.26800
C1058       C  0.71786173  0.57845933  0.34639138    -0.20400
C1059       C  0.72075652  0.55513188  0.35702262    -0.10000
C1060       C  0.74076402  0.53119846  0.35444360    -0.10600
C1061       C  0.75799922  0.53139237  0.34100718    -0.03500
C1062       C  0.75505279  0.55474394  0.33034290    -0.18600
H1063       H  0.78800284  0.68351832  0.27792096     0.10500
H1064       H  0.79340481  0.64264150  0.29637455     0.10500
H1065       H  0.69736747  0.63628180  0.30013938     0.10200
H1066       H  0.69198493  0.67733516  0.28189111     0.11300
H1067       H  0.77206973  0.60033743  0.31084896     0.11400
H1068       H  0.70984921  0.61650519  0.32287227     0.13300
H1069       H  0.70212051  0.59645623  0.34868122     0.09800
H1070       H  0.70712908  0.55582539  0.36724135     0.11900
H1071       H  0.77342450  0.51320966  0.33857664     0.08500
H1072       H  0.76803280  0.55349255  0.31994394     0.11300
C1073       C  0.54409084  0.19465188  0.37643917    -0.03300
C1074       C  0.54386337  0.17043574  0.36608803    -0.05900
C1075       C  0.56641758  0.14865350  0.36641327    -0.21000
C1076       C  0.58997082  0.15056626  0.37696312     0.24700
C1077       C  0.59029840  0.17483604  0.38733477    -0.18600
C1078       C  0.56762843  0.19660054  0.38705123    -0.08500
C1079       C  0.61300744  0.12628815  0.37686711    -0.18800
C1080       C  0.64017268  0.12833337  0.38350508    -0.23600
C1081       C  0.66300807  0.10387899  0.38265950     0.26800
C1082       C  0.68574239  0.10266541  0.39370879    -0.20400
C1083       C  0.70770289  0.08013504  0.39317304    -0.10000
C1084       C  0.70755730  0.05842665  0.38145939    -0.10600
C1085       C  0.68503559  0.05997751  0.37028571    -0.03500
C1086       C  0.66318458  0.08242221  0.37081844    -0.18600
H1087       H  0.52609309  0.16808587  0.35778843     0.10500
H1088       H  0.56546158  0.13018055  0.35832874     0.10500
H1089       H  0.60754820  0.17693403  0.39589402     0.10200
H1090       H  0.56848537  0.21487160  0.39524461     0.11300
H1091       H  0.60711570  0.10582331  0.37079405     0.11400
H1092       H  0.64616013  0.14841080  0.38986754     0.13300
H1093       H  0.68639493  0.11909779  0.40285747     0.09800
H1094       H  0.72476523  0.07975738  0.40192799     0.11900
H1095       H  0.68430910  0.04391234  0.36098005     0.08500
H1096       H  0.64692620  0.08310713  0.36170724     0.11300
C1097       C  0.79873799  0.00804237  0.40150883    -0.03300
C1098       C  0.82059471  0.98548445  0.39980330    -0.05900
C1099       C  0.84484421  0.98379950  0.40976970    -0.21000
C1100       C  0.84788073  0.00434111  0.42183484     0.24700
C1101       C  0.82604377  0.02696004  0.42364914    -0.18600
C1102       C  0.80171005  0.02874391  0.41358926    -0.08500
C1103       C  0.87467349  0.00177985  0.43182816    -0.18800
C1104       C  0.87622124  0.01286994  0.44612914    -0.23600
C1105       C  0.90277065  0.00888702  0.45618295     0.26800
C1106       C  0.89880429  0.01020335  0.47207494    -0.20400
C1107       C  0.92310221  0.00676171  0.48194997    -0.10000
C1108       C  0.95200878  0.00239387  0.47613445    -0.10600
C1109       C  0.95613497  0.00108838  0.46024969    -0.03500
C1110       C  0.93181821  0.00446587  0.45035252    -0.18600
H1111       H  0.81921871  0.96914217  0.39064249     0.10500
H1112       H  0.86134658  0.96626005  0.40803631     0.10500
H1113       H  0.82794810  0.04371819  0.43256728     0.10200
H1114       H  0.78543251  0.04652279  0.41518318     0.11300
H1115       H  0.89322112  0.98859342  0.42745031     0.11400
H1116       H  0.85674070  0.02368601  0.45107467     0.13300
H1117       H  0.87676618  0.01375995  0.47687733     0.09800
H1118       H  0.91942487  0.00795847  0.49416158     0.11900
H1119       H  0.97823658  0.99762958  0.45551131     0.08500
H1120       H  0.93601755  0.00414240  0.43819196     0.11300
C1121       C  0.73559774  0.81451398  0.28260112    -0.03300
C1122       C  0.71394767  0.81436616  0.29423173    -0.05900
C1123       C  0.71620963  0.83431690  0.30655257    -0.21000
C1124       C  0.73954833  0.85539123  0.30718873     0.24700
C1125       C  0.76114288  0.85570033  0.29553848    -0.18600
C1126       C  0.75936180  0.83519371  0.28343688    -0.08500
C1127       C  0.74135904  0.87644314  0.32025697    -0.18800
C1128       C  0.74738700  0.90589259  0.31835262    -0.23600
C1129       C  0.74780438  0.92729675  0.33131175     0.26800
C1130       C  0.73486051  0.95586818  0.32959157    -0.20400
C1131       C  0.73503343  0.97647901  0.34168446    -0.10000
C1132       C  0.74901639  0.96918200  0.35556239    -0.10600
C1133       C  0.76245471  0.94070897  0.35716319    -0.03500
C1134       C  0.76160324  0.91983746  0.34519989    -0.18600
H1135       H  0.69557664  0.79845752  0.29393635     0.10500
H1136       H  0.69946878  0.83362312  0.31549123     0.10500
H1137       H  0.77963612  0.87145427  0.29593679     0.10200
H1138       H  0.77639827  0.83570724  0.27464553     0.11300
H1139       H  0.73546435  0.86803785  0.33152145     0.11400
H1140       H  0.75000596  0.91488575  0.30688442     0.13300
H1141       H  0.72427542  0.96208304  0.31892924     0.09800
H1142       H  0.72470994  0.99832526  0.34007721     0.11900
H1143       H  0.77343916  0.93447382  0.36771267     0.08500
H1144       H  0.77219646  0.89809264  0.34669590     0.11300
loop_ 
_geom_bond_atom_site_label_1 
_geom_bond_atom_site_label_2 
_geom_bond_distance 
_geom_bond_site_symmetry_2 
_ccdc_geom_bond_type 
C1            N2   1.355       .  A
C1            N6   1.356   1_565  A
C1         C1132   1.480       .  S
N2            C3   1.359   1_565  A
C3            N4   1.364       .  A
C3         C1097   1.488       .  S
N4            C5   1.364       .  A
C5            N6   1.360       .  A
C5         C1084   1.489       .  S
O7          Cu15   2.010       .  S
O7           C17   1.279       .  A
O8          Cu15   2.013       .  S
O8           C18   1.279       .  A
O9          Cu15   2.006       .  S
O9           C19   1.278       .  A
O10         Cu15   2.007       .  S
O10          C20   1.277       .  A
O11         Cu16   2.015       .  S
O11          C20   1.279       .  A
O12         Cu16   2.014       .  S
O12          C19   1.279       .  A
O13         Cu16   2.016       .  S
O13          C18   1.279       .  A
O14         Cu16   2.021       .  S
O14          C17   1.279       .  A
Cu15        Cu16   2.370       .  S
C17        C1012   1.486       .  S
C18        C1049   1.485       .  S
C19        C1036   1.482       .  S
C20        C1121   1.478       .  S
C21          N22   1.361       .  A
C21          N26   1.358       .  A
C21        C1060   1.487       .  S
N22          C23   1.362       .  A
C23          N24   1.361       .  A
C23         C953   1.489       .  S
N24          C25   1.360       .  A
C25          N26   1.358       .  A
C25         C977   1.486       .  S
C27          N28   1.358       .  A
C27          N32   1.358       .  A
C27        C1025   1.485       .  S
N28          C29   1.359       .  A
C29          N30   1.361       .  A
C29         C929   1.488       .  S
N30          C31   1.362       .  A
C31          N32   1.360       .  A
C31         C905   1.487       .  S
C33          N34   1.360   1_565  A
C33          N38   1.361       .  A
C33        C1001   1.489       .  S
N34          C35   1.359       .  A
C35          N36   1.360       .  A
C35         C857   1.488       .  S
N36          C37   1.361       .  A
C37          N38   1.362   1_545  A
C37         C892   1.488       .  S
C39         C809   1.485       .  S
C39          C40   1.417       .  A
C39          C44   1.403   1_554  A
C40         C881   1.485       .  S
C40          C41   1.406   1_544  A
C41          C42   1.407       .  A
C41          H46   1.084       .  S
C42         C785   1.484       .  S
C42          C43   1.416       .  A
C43         C833   1.485       .  S
C43          C44   1.401   1_565  A
C44          H45   1.084       .  S
C47          N48   1.356       .  A
C47          N52   1.355       .  A
C47         C761   1.476   1_565  S
N48          C49   1.359       .  A
C49          N50   1.363       .  A
C49         C748   1.486       .  S
N50          C51   1.362       .  A
C51          N52   1.358       .  A
C51         C844   1.485       .  S
C53          N54   1.354       .  A
C53          N58   1.358       .  A
C53         C713   1.484       .  S
N54          C55   1.356       .  A
C55          N56   1.362       .  A
C55         C700   1.486       .  S
N56          C57   1.364       .  A
C57          N58   1.362       .  A
C57         C665   1.487       .  S
O59         Cu67   2.002       .  S
O59          C69   1.277       .  A
O60         Cu67   2.002       .  S
O60          C70   1.277       .  A
O61         Cu67   2.018       .  S
O61          C71   1.280       .  A
O62         Cu67   2.014       .  S
O62          C72   1.279       .  A
O63         Cu68   2.009       .  S
O63          C72   1.278       .  A
O64         Cu68   2.003       .  S
O64          C71   1.278       .  A
O65         Cu68   2.014       .  S
O65          C70   1.279       .  A
O66         Cu68   2.013       .  S
O66          C69   1.279       .  A
Cu67        Cu68   2.371       .  S
C69         C772   1.475       .  S
C70         C617   1.481       .  S
C71         C724   1.482       .  S
C72         C641   1.483       .  S
C73          N74   1.359       .  A
C73          N78   1.359   1_545  A
C73         C652   1.486       .  S
N74          C75   1.360   1_545  A
C75          N76   1.361       .  A
C75         C604   1.486       .  S
N76          C77   1.360       .  A
C77          N78   1.359       .  A
C77         C569   1.487       .  S
C79          N80   1.356       .  A
C79          N84   1.357       .  A
C79         C628   1.484       .  S
N80          C81   1.358       .  A
C81          N82   1.363       .  A
C81         C532   1.489       .  S
N82          C83   1.364       .  A
C83          N84   1.360       .  A
C83         C545   1.488       .  S
C85         C473   1.484       .  S
C85          C86   1.416       .  A
C85          C90   1.403   1_654  A
C86         C940   1.486       .  S
C86          C87   1.405   1_554  A
C87          C88   1.406       .  A
C87          H92   1.084       .  S
C88         C497   1.484       .  S
C88          C89   1.417   1_655  A
C89         C689   1.484       .  S
C89          C90   1.403       .  A
C90          H91   1.084       .  S
O93        Cu101   2.009       .  S
O93         C103   1.278       .  A
O94        Cu101   2.017       .  S
O94         C104   1.279       .  A
O95        Cu101   2.011       .  S
O95         C105   1.279       .  A
O96        Cu101   2.009       .  S
O96         C106   1.278       .  A
O97        Cu102   2.024       .  S
O97         C106   1.279       .  A
O98        Cu102   2.020       .  S
O98         C105   1.279       .  A
O99        Cu102   2.014       .  S
O99         C104   1.279       .  A
O100       Cu102   2.020       .  S
O100        C103   1.280       .  A
Cu101      Cu102   2.369       .  S
C103        C436   1.485       .  S
C104        C377   1.483       .  S
C105        C401   1.486       .  S
C106        C460   1.480       .  S
C107        N108   1.358       .  A
C107        N112   1.358       .  A
C107        C425   1.487       .  S
N108        C109   1.361       .  A
C109        N110   1.361       .  A
C109        C796   1.486       .  S
N110        C111   1.360       .  A
C111        N112   1.360       .  A
C111        C676   1.487       .  S
C113        N114   1.359   1_655  A
C113        N118   1.361       .  A
C113        C412   1.488       .  S
N114        C115   1.359       .  A
C115        N116   1.359       .  A
C115        C737   1.486       .  S
N116        C117   1.360       .  A
C117        N118   1.361   1_455  A
C117        C508   1.488   1_455  S
C119        N120   1.358       .  A
C119        N124   1.359       .  A
C119        C449   1.483       .  S
N120        C121   1.359       .  A
C121        N122   1.360       .  A
C121        C353   1.487       .  S
N122        C123   1.362       .  A
C123        N124   1.361       .  A
C123        C580   1.487       .  S
C125        N126   1.358       .  A
C125        N130   1.361   1_655  A
C125        C388   1.480       .  S
N126        C127   1.358   1_655  A
C127        N128   1.359       .  A
C127        C329   1.486       .  S
N128        C129   1.360       .  A
C129        N130   1.363       .  A
C129        C521   1.489       .  S
C131        N132   1.359   1_455  A
C131        N136   1.355       .  A
C131        C305   1.478       .  S
N132        C133   1.363       .  A
C133        N134   1.363       .  A
C133        C868   1.488       .  S
N134        C135   1.360       .  A
C135        N136   1.356   1_655  A
C135        C484   1.485       .  S
C137        N138   1.358       .  A
C137        N142   1.363       .  A
C137        C292   1.488       .  S
N138        C139   1.355       .  A
C139        N140   1.356       .  A
C139        C820   1.483       .  S
N140        C141   1.360       .  A
C141        N142   1.365       .  A
C141        C916   1.486       .  S
O143       Cu151   2.015       .  S
O143        C153   1.280       .  A
O144       Cu151   2.021       .  S
O144        C154   1.280       .  A
O145       Cu151   2.003       .  S
O145        C155   1.277       .  A
O146       Cu151   2.009       .  S
O146        C156   1.278       .  A
O147       Cu152   2.020       .  S
O147        C156   1.280       .  A
O148       Cu152   2.025       .  S
O148        C155   1.280       .  A
O149       Cu152   1.996       .  S
O149        C154   1.277       .  A
O150       Cu152   2.002       .  S
O150        C153   1.277       .  A
Cu151      Cu152   2.370       .  S
C153        C257   1.481       .  S
C154        C316   1.479       .  S
C155        C233   1.480       .  S
C156        C281   1.485       .  S
C157        N158   1.362   1_455  A
C157        N162   1.359       .  A
C157        C244   1.480       .  S
N158        C159   1.363       .  A
C159        N160   1.360       .  A
C159        C964   1.489       .  S
N160        C161   1.358       .  A
C161        N162   1.357   1_655  A
C161        C209   1.486       .  S
C163        N164   1.360       .  A
C163        N168   1.356       .  A
C163        C268   1.485       .  S
N164        C165   1.364       .  A
C165        N166   1.362       .  A
C165       C1073   1.487       .  S
N166        C167   1.359       .  A
C167        N168   1.355       .  A
C167        C185   1.484       .  S
C169        C220   1.484       .  S
C169        C170   1.418   1_445  A
C169        C174   1.405       .  A
C170       C1108   1.487   1_565  S
C170        C171   1.405       .  A
C171        C172   1.404   1_655  A
C171        H176   1.084       .  S
C172        C340   1.483   1_455  S
C172        C173   1.415       .  A
C173        C593   1.485       .  S
C173        C174   1.404   1_565  A
C174        H175   1.084       .  S
C177        C196   1.488       .  S
C177        C178   1.417       .  A
C177        C182   1.405       .  A
C178        C988   1.484       .  S
C178        C179   1.404       .  A
C179        C180   1.405       .  A
C179        H184   1.084       .  S
C180        C364   1.484       .  S
C180        C181   1.417       .  A
C181        C556   1.486       .  S
C181        C182   1.405       .  A
C182        H183   1.084       .  S
C185        C186   1.406       .  A
C185        C190   1.405       .  A
C186        C187   1.395       .  A
C186        H199   1.083       .  S
C187        C188   1.404       .  A
C187        H200   1.083       .  S
C188        C189   1.411       .  A
C188        C191   1.493       .  S
C189        C190   1.401       .  A
C189        H201   1.079       .  S
C190        H202   1.083       .  S
C191        C192   1.349       .  D
C191        H203   1.084       .  S
C192        C193   1.490       .  S
C192        H204   1.082       .  S
C193        C194   1.404       .  A
C193        C198   1.410       .  A
C194        C195   1.397       .  A
C194        H205   1.083       .  S
C195        C196   1.404       .  A
C195        H206   1.083       .  S
C196        C197   1.404       .  A
C197        C198   1.399       .  A
C197        H207   1.083       .  S
C198        H208   1.080       .  S
C209        C210   1.405       .  A
C209        C214   1.407   1_655  A
C210        C211   1.397       .  A
C210        H223   1.083       .  S
C211        C212   1.404       .  A
C211        H224   1.083       .  S
C212        C213   1.409   1_655  A
C212        C215   1.489       .  S
C213        C214   1.401       .  A
C213        H225   1.080       .  S
C214        H226   1.083       .  S
C215        C216   1.349   1_655  D
C215        H227   1.084       .  S
C216        C217   1.490       .  S
C216        H228   1.084       .  S
C217        C218   1.405       .  A
C217        C222   1.409   1_455  A
C218        C219   1.399       .  A
C218        H229   1.083       .  S
C219        C220   1.403       .  A
C219        H230   1.083       .  S
C220        C221   1.403   1_455  A
C221        C222   1.397       .  A
C221        H231   1.083       .  S
C222        H232   1.081       .  S
C233        C234   1.405       .  A
C233        C238   1.405       .  A
C234        C235   1.401       .  A
C234        H247   1.083       .  S
C235        C236   1.404       .  A
C235        H248   1.083       .  S
C236        C237   1.406       .  A
C236        C239   1.487       .  S
C237        C238   1.398       .  A
C237        H249   1.082       .  S
C238        H250   1.083       .  S
C239        C240   1.346       .  D
C239        H251   1.087       .  S
C240        C241   1.483       .  S
C240        H252   1.086       .  S
C241        C242   1.401       .  A
C241        C246   1.407       .  A
C242        C243   1.397       .  A
C242        H253   1.083       .  S
C243        C244   1.405       .  A
C243        H254   1.083       .  S
C244        C245   1.406       .  A
C245        C246   1.403       .  A
C245        H255   1.083       .  S
C246        H256   1.083       .  S
C257        C258   1.407       .  A
C257        C262   1.404       .  A
C258        C259   1.398       .  A
C258        H271   1.083       .  S
C259        C260   1.402       .  A
C259        H272   1.083       .  S
C260        C261   1.409       .  A
C260        C263   1.487       .  S
C261        C262   1.397       .  A
C261        H273   1.082       .  S
C262        H274   1.083       .  S
C263        C264   1.346       .  D
C263        H275   1.084       .  S
C264        C265   1.488       .  S
C264        H276   1.086       .  S
C265        C266   1.402       .  A
C265        C270   1.411       .  A
C266        C267   1.393       .  A
C266        H277   1.084       .  S
C267        C268   1.406       .  A
C267        H278   1.083       .  S
C268        C269   1.406       .  A
C269        C270   1.403       .  A
C269        H279   1.083       .  S
C270        H280   1.080       .  S
C281        C282   1.407       .  A
C281        C286   1.405       .  A
C282        C283   1.400       .  A
C282        H295   1.083       .  S
C283        C284   1.404       .  A
C283        H296   1.083       .  S
C284        C285   1.410       .  A
C284        C287   1.493       .  S
C285        C286   1.400       .  A
C285        H297   1.081       .  S
C286        H298   1.083       .  S
C287        C288   1.348       .  D
C287        H299   1.084       .  S
C288        C289   1.491       .  S
C288        H300   1.085       .  S
C289        C290   1.402       .  A
C289        C294   1.411       .  A
C290        C291   1.394       .  A
C290        H301   1.084       .  S
C291        C292   1.407       .  A
C291        H302   1.083       .  S
C292        C293   1.407       .  A
C293        C294   1.405       .  A
C293        H303   1.083       .  S
C294        H304   1.081       .  S
C305        C306   1.406       .  A
C305        C310   1.405       .  A
C306        C307   1.395       .  A
C306        H319   1.083       .  S
C307        C308   1.400       .  A
C307        H320   1.083       .  S
C308        C309   1.406       .  A
C308        C311   1.477       .  S
C309        C310   1.401       .  A
C309        H321   1.083       .  S
C310        H322   1.083       .  S
C311        C312   1.343       .  D
C311        H323   1.087       .  S
C312        C313   1.480       .  S
C312        H324   1.087       .  S
C313        C314   1.403       .  A
C313        C318   1.404       .  A
C314        C315   1.401       .  A
C314        H325   1.083       .  S
C315        C316   1.406       .  A
C315        H326   1.083       .  S
C316        C317   1.406       .  A
C317        C318   1.396       .  A
C317        H327   1.083       .  S
C318        H328   1.083       .  S
C329        C330   1.406       .  A
C329        C334   1.407   1_455  A
C330        C331   1.399       .  A
C330        H343   1.083       .  S
C331        C332   1.404       .  A
C331        H344   1.083       .  S
C332        C333   1.408   1_455  A
C332        C335   1.488       .  S
C333        C334   1.398       .  A
C333        H345   1.081       .  S
C334        H346   1.083       .  S
C335        C336   1.349   1_455  D
C335        H347   1.085       .  S
C336        C337   1.488       .  S
C336        H348   1.084       .  S
C337        C338   1.405       .  A
C337        C342   1.409   1_655  A
C338        C339   1.398       .  A
C338        H349   1.083       .  S
C339        C340   1.402       .  A
C339        H350   1.083       .  S
C340        C341   1.404   1_655  A
C341        C342   1.398       .  A
C341        H351   1.083       .  S
C342        H352   1.081       .  S
C353        C354   1.407       .  A
C353        C358   1.406       .  A
C354        C355   1.401       .  A
C354        H367   1.083       .  S
C355        C356   1.405       .  A
C355        H368   1.083       .  S
C356        C357   1.408       .  A
C356        C359   1.492       .  S
C357        C358   1.397       .  A
C357        H369   1.081       .  S
C358        H370   1.083       .  S
C359        C360   1.350       .  D
C359        H371   1.084       .  S
C360        C361   1.490       .  S
C360        H372   1.084       .  S
C361        C362   1.405       .  A
C361        C366   1.409       .  A
C362        C363   1.397       .  A
C362        H373   1.083       .  S
C363        C364   1.401       .  A
C363        H374   1.083       .  S
C364        C365   1.404       .  A
C365        C366   1.400       .  A
C365        H375   1.083       .  S
C366        H376   1.080       .  S
C377        C378   1.406       .  A
C377        C382   1.407       .  A
C378        C379   1.400       .  A
C378        H391   1.083       .  S
C379        C380   1.403       .  A
C379        H392   1.083       .  S
C380        C381   1.406       .  A
C380        C383   1.484       .  S
C381        C382   1.400       .  A
C381        H393   1.083       .  S
C382        H394   1.083       .  S
C383        C384   1.346       .  D
C383        H395   1.087       .  S
C384        C385   1.485       .  S
C384        H396   1.087       .  S
C385        C386   1.404       .  A
C385        C390   1.406       .  A
C386        C387   1.400       .  A
C386        H397   1.083       .  S
C387        C388   1.404       .  A
C387        H398   1.083       .  S
C388        C389   1.406       .  A
C389        C390   1.400       .  A
C389        H399   1.083       .  S
C390        H400   1.083       .  S
C401        C402   1.406       .  A
C401        C406   1.406       .  A
C402        C403   1.398       .  A
C402        H415   1.083       .  S
C403        C404   1.404       .  A
C403        H416   1.083       .  S
C404        C405   1.410       .  A
C404        C407   1.492       .  S
C405        C406   1.402       .  A
C405        H417   1.081       .  S
C406        H418   1.083       .  S
C407        C408   1.349       .  D
C407        H419   1.085       .  S
C408        C409   1.492       .  S
C408        H420   1.085       .  S
C409        C410   1.404       .  A
C409        C414   1.409       .  A
C410        C411   1.399       .  A
C410        H421   1.083       .  S
C411        C412   1.407       .  A
C411        H422   1.083       .  S
C412        C413   1.407       .  A
C413        C414   1.401       .  A
C413        H423   1.083       .  S
C414        H424   1.081       .  S
C425        C426   1.406       .  A
C425        C430   1.407       .  A
C426        C427   1.398       .  A
C426        H439   1.083       .  S
C427        C428   1.404       .  A
C427        H440   1.083       .  S
C428        C429   1.409       .  A
C428        C431   1.490       .  S
C429        C430   1.401       .  A
C429        H441   1.081       .  S
C430        H442   1.083       .  S
C431        C432   1.349       .  D
C431        H443   1.085       .  S
C432        C433   1.491       .  S
C432        H444   1.085       .  S
C433        C434   1.405       .  A
C433        C438   1.408       .  A
C434        C435   1.400       .  A
C434        H445   1.083       .  S
C435        C436   1.406       .  A
C435        H446   1.083       .  S
C436        C437   1.406       .  A
C437        C438   1.399       .  A
C437        H447   1.083       .  S
C438        H448   1.081       .  S
C449        C450   1.406       .  A
C449        C454   1.406       .  A
C450        C451   1.399       .  A
C450        H463   1.083       .  S
C451        C452   1.402       .  A
C451        H464   1.083       .  S
C452        C453   1.407       .  A
C452        C455   1.485       .  S
C453        C454   1.401       .  A
C453        H465   1.083       .  S
C454        H466   1.083       .  S
C455        C456   1.346       .  D
C455        H467   1.087       .  S
C456        C457   1.485       .  S
C456        H468   1.087       .  S
C457        C458   1.402       .  A
C457        C462   1.407       .  A
C458        C459   1.398       .  A
C458        H469   1.083       .  S
C459        C460   1.405       .  A
C459        H470   1.083       .  S
C460        C461   1.405       .  A
C461        C462   1.403       .  A
C461        H471   1.083       .  S
C462        H472   1.083       .  S
C473        C474   1.404       .  A
C473        C478   1.402   1_655  A
C474        C475   1.398       .  A
C474        H487   1.083       .  S
C475        C476   1.404       .  A
C475        H488   1.083       .  S
C476        C477   1.410   1_655  A
C476        C479   1.489       .  S
C477        C478   1.398       .  A
C477        H489   1.081       .  S
C478        H490   1.083       .  S
C479        C480   1.347       .  D
C479        H491   1.084       .  S
C480        C481   1.487       .  S
C480        H492   1.084   1_655  S
C481        C482   1.401   1_655  A
C481        C486   1.409       .  A
C482        C483   1.395       .  A
C482        H493   1.084       .  S
C483        C484   1.407   1_455  A
C483        H494   1.083       .  S
C484        C485   1.406       .  A
C485        C486   1.402       .  A
C485        H495   1.083       .  S
C486        H496   1.081       .  S
C497        C498   1.403   1_655  A
C497        C502   1.402       .  A
C498        C499   1.399       .  A
C498        H511   1.083       .  S
C499        C500   1.406   1_455  A
C499        H512   1.083       .  S
C500        C501   1.410       .  A
C500        C503   1.492       .  S
C501        C502   1.400       .  A
C501        H513   1.080       .  S
C502        H514   1.083       .  S
C503        C504   1.350       .  D
C503        H515   1.084   1_655  S
C504        C505   1.491       .  S
C504        H516   1.084       .  S
C505        C506   1.404       .  A
C505        C510   1.408   1_655  A
C506        C507   1.399       .  A
C506        H517   1.083       .  S
C507        C508   1.406       .  A
C507        H518   1.083       .  S
C508        C509   1.408   1_655  A
C509        C510   1.400       .  A
C509        H519   1.083       .  S
C510        H520   1.081       .  S
C521        C522   1.407       .  A
C521        C526   1.406       .  A
C522        C523   1.399       .  A
C522        H535   1.083       .  S
C523        C524   1.404       .  A
C523        H536   1.083       .  S
C524        C525   1.411       .  A
C524        C527   1.495       .  S
C525        C526   1.401       .  A
C525        H537   1.080       .  S
C526        H538   1.083       .  S
C527        C528   1.349       .  D
C527        H539   1.084       .  S
C528        C529   1.493       .  S
C528        H540   1.084       .  S
C529        C530   1.403       .  A
C529        C534   1.411       .  A
C530        C531   1.395       .  A
C530        H541   1.084       .  S
C531        C532   1.407       .  A
C531        H542   1.083       .  S
C532        C533   1.407       .  A
C533        C534   1.405       .  A
C533        H543   1.083       .  S
C534        H544   1.080       .  S
C545        C546   1.408       .  A
C545        C550   1.407       .  A
C546        C547   1.397       .  A
C546        H559   1.083       .  S
C547        C548   1.402       .  A
C547        H560   1.084       .  S
C548        C549   1.408       .  A
C548        C551   1.488       .  S
C549        C550   1.402       .  A
C549        H561   1.082       .  S
C550        H562   1.083       .  S
C551        C552   1.347       .  D
C551        H563   1.086       .  S
C552        C553   1.489       .  S
C552        H564   1.086       .  S
C553        C554   1.404       .  A
C553        C558   1.409       .  A
C554        C555   1.398       .  A
C554        H565   1.083       .  S
C555        C556   1.403       .  A
C555        H566   1.083       .  S
C556        C557   1.404       .  A
C557        C558   1.400       .  A
C557        H567   1.083       .  S
C558        H568   1.082       .  S
C569        C570   1.406       .  A
C569        C574   1.407       .  A
C570        C571   1.398       .  A
C570        H583   1.083       .  S
C571        C572   1.404       .  A
C571        H584   1.083       .  S
C572        C573   1.409       .  A
C572        C575   1.491       .  S
C573        C574   1.401       .  A
C573        H585   1.081       .  S
C574        H586   1.083       .  S
C575        C576   1.349       .  D
C575        H587   1.084       .  S
C576        C577   1.491       .  S
C576        H588   1.084       .  S
C577        C578   1.404       .  A
C577        C582   1.408       .  A
C578        C579   1.400       .  A
C578        H589   1.083       .  S
C579        C580   1.407       .  A
C579        H590   1.083       .  S
C580        C581   1.407       .  A
C581        C582   1.399       .  A
C581        H591   1.083       .  S
C582        H592   1.081       .  S
C593        C594   1.402       .  A
C593        C598   1.404       .  A
C594        C595   1.399       .  A
C594        H607   1.083       .  S
C595        C596   1.406       .  A
C595        H608   1.083       .  S
C596        C597   1.409       .  A
C596        C599   1.490       .  S
C597        C598   1.399       .  A
C597        H609   1.080       .  S
C598        H610   1.083       .  S
C599        C600   1.349       .  D
C599        H611   1.085       .  S
C600        C601   1.490       .  S
C600        H612   1.084   1_565  S
C601        C602   1.404   1_565  A
C601        C606   1.408       .  A
C602        C603   1.399       .  A
C602        H613   1.083       .  S
C603        C604   1.407   1_545  A
C603        H614   1.083       .  S
C604        C605   1.406       .  A
C605        C606   1.399       .  A
C605        H615   1.083       .  S
C606        H616   1.081       .  S
C617        C618   1.405       .  A
C617        C622   1.406       .  A
C618        C619   1.398       .  A
C618        H631   1.083       .  S
C619        C620   1.404       .  A
C619        H632   1.083       .  S
C620        C621   1.407       .  A
C620        C623   1.487       .  S
C621        C622   1.397       .  A
C621        H633   1.081       .  S
C622        H634   1.083       .  S
C623        C624   1.349       .  D
C623        H635   1.084       .  S
C624        C625   1.489       .  S
C624        H636   1.085       .  S
C625        C626   1.405       .  A
C625        C630   1.408       .  A
C626        C627   1.399       .  A
C626        H637   1.083       .  S
C627        C628   1.405       .  A
C627        H638   1.083       .  S
C628        C629   1.406       .  A
C629        C630   1.398       .  A
C629        H639   1.083       .  S
C630        H640   1.080       .  S
C641        C642   1.405       .  A
C641        C646   1.405       .  A
C642        C643   1.398       .  A
C642        H655   1.083       .  S
C643        C644   1.404       .  A
C643        H656   1.083       .  S
C644        C645   1.410       .  A
C644        C647   1.491       .  S
C645        C646   1.399       .  A
C645        H657   1.080       .  S
C646        H658   1.083       .  S
C647        C648   1.349       .  D
C647        H659   1.084       .  S
C648        C649   1.491       .  S
C648        H660   1.084       .  S
C649        C650   1.404       .  A
C649        C654   1.410       .  A
C650        C651   1.397       .  A
C650        H661   1.083       .  S
C651        C652   1.406       .  A
C651        H662   1.083       .  S
C652        C653   1.407       .  A
C653        C654   1.400       .  A
C653        H663   1.083       .  S
C654        H664   1.080       .  S
C665        C666   1.407       .  A
C665        C670   1.406       .  A
C666        C667   1.402       .  A
C666        H679   1.083       .  S
C667        C668   1.405       .  A
C667        H680   1.083       .  S
C668        C669   1.408       .  A
C668        C671   1.491       .  S
C669        C670   1.397       .  A
C669        H681   1.081       .  S
C670        H682   1.083       .  S
C671        C672   1.350       .  D
C671        H683   1.083       .  S
C672        C673   1.492       .  S
C672        H684   1.085       .  S
C673        C674   1.404       .  A
C673        C678   1.410       .  A
C674        C675   1.396       .  A
C674        H685   1.084       .  S
C675        C676   1.405       .  A
C675        H686   1.083       .  S
C676        C677   1.407       .  A
C677        C678   1.403       .  A
C677        H687   1.083       .  S
C678        H688   1.080       .  S
C689        C690   1.404       .  A
C689        C694   1.403       .  A
C690        C691   1.399       .  A
C690        H703   1.083       .  S
C691        C692   1.403       .  A
C691        H704   1.083       .  S
C692        C693   1.409       .  A
C692        C695   1.487       .  S
C693        C694   1.398       .  A
C693        H705   1.082       .  S
C694        H706   1.083       .  S
C695        C696   1.345       .  D
C695        H707   1.086       .  S
C696        C697   1.485       .  S
C696        H708   1.086       .  S
C697        C698   1.400       .  A
C697        C702   1.409       .  A
C698        C699   1.393       .  A
C698        H709   1.084       .  S
C699        C700   1.407       .  A
C699        H710   1.083       .  S
C700        C701   1.407       .  A
C701        C702   1.404       .  A
C701        H711   1.083       .  S
C702        H712   1.082       .  S
C713        C714   1.406       .  A
C713        C718   1.407       .  A
C714        C715   1.401       .  A
C714        H727   1.083       .  S
C715        C716   1.405       .  A
C715        H728   1.083       .  S
C716        C717   1.407       .  A
C716        C719   1.489       .  S
C717        C718   1.396       .  A
C717        H729   1.081       .  S
C718        H730   1.083       .  S
C719        C720   1.349       .  D
C719        H731   1.085       .  S
C720        C721   1.488       .  S
C720        H732   1.085       .  S
C721        C722   1.403       .  A
C721        C726   1.408       .  A
C722        C723   1.397       .  A
C722        H733   1.084       .  S
C723        C724   1.406       .  A
C723        H734   1.083       .  S
C724        C725   1.406       .  A
C725        C726   1.400       .  A
C725        H735   1.083       .  S
C726        H736   1.081       .  S
C737        C738   1.406       .  A
C737        C742   1.407       .  A
C738        C739   1.398       .  A
C738        H751   1.083       .  S
C739        C740   1.404       .  A
C739        H752   1.083       .  S
C740        C741   1.408       .  A
C740        C743   1.489       .  S
C741        C742   1.400       .  A
C741        H753   1.081       .  S
C742        H754   1.083       .  S
C743        C744   1.350       .  D
C743        H755   1.084       .  S
C744        C745   1.491       .  S
C744        H756   1.084       .  S
C745        C746   1.405       .  A
C745        C750   1.408       .  A
C746        C747   1.401       .  A
C746        H757   1.083       .  S
C747        C748   1.406       .  A
C747        H758   1.083       .  S
C748        C749   1.407       .  A
C749        C750   1.397       .  A
C749        H759   1.083       .  S
C750        H760   1.080       .  S
C761        C762   1.404       .  A
C761        C766   1.405       .  A
C762        C763   1.397       .  A
C762        H775   1.083   1_545  S
C763        C764   1.402       .  A
C763        H776   1.083       .  S
C764        C765   1.405       .  A
C764        C767   1.478       .  S
C765        C766   1.398       .  A
C765        H777   1.083       .  S
C766        H778   1.083       .  S
C767        C768   1.344       .  D
C767        H779   1.087       .  S
C768        C769   1.479       .  S
C768        H780   1.087       .  S
C769        C770   1.402       .  A
C769        C774   1.405       .  A
C770        C771   1.399       .  A
C770        H781   1.083       .  S
C771        C772   1.405       .  A
C771        H782   1.083       .  S
C772        C773   1.404       .  A
C773        C774   1.396       .  A
C773        H783   1.083       .  S
C774        H784   1.083       .  S
C785        C786   1.403       .  A
C785        C790   1.404       .  A
C786        C787   1.399       .  A
C786        H799   1.083       .  S
C787        C788   1.405       .  A
C787        H800   1.083       .  S
C788        C789   1.408       .  A
C788        C791   1.488       .  S
C789        C790   1.397       .  A
C789        H801   1.081       .  S
C790        H802   1.083       .  S
C791        C792   1.347       .  D
C791        H803   1.085       .  S
C792        C793   1.487       .  S
C792        H804   1.085       .  S
C793        C794   1.402       .  A
C793        C798   1.408       .  A
C794        C795   1.397       .  A
C794        H805   1.083       .  S
C795        C796   1.406       .  A
C795        H806   1.083       .  S
C796        C797   1.407       .  A
C797        C798   1.400       .  A
C797        H807   1.083       .  S
C798        H808   1.082       .  S
C809        C810   1.405       .  A
C809        C814   1.403       .  A
C810        C811   1.399       .  A
C810        H823   1.083       .  S
C811        C812   1.404       .  A
C811        H824   1.083       .  S
C812        C813   1.409       .  A
C812        C815   1.488       .  S
C813        C814   1.395       .  A
C813        H825   1.081       .  S
C814        H826   1.083       .  S
C815        C816   1.348       .  D
C815        H827   1.083       .  S
C816        C817   1.488       .  S
C816        H828   1.084       .  S
C817        C818   1.403       .  A
C817        C822   1.410       .  A
C818        C819   1.394       .  A
C818        H829   1.083       .  S
C819        C820   1.404       .  A
C819        H830   1.083       .  S
C820        C821   1.406       .  A
C821        C822   1.401       .  A
C821        H831   1.083       .  S
C822        H832   1.080       .  S
C833        C834   1.402   1_565  A
C833        C838   1.405       .  A
C834        C835   1.397       .  A
C834        H847   1.083       .  S
C835        C836   1.405   1_545  A
C835        H848   1.083       .  S
C836        C837   1.409       .  A
C836        C839   1.488       .  S
C837        C838   1.399       .  A
C837        H849   1.081       .  S
C838        H850   1.083       .  S
C839        C840   1.350       .  D
C839        H851   1.084   1_565  S
C840        C841   1.491       .  S
C840        H852   1.084       .  S
C841        C842   1.405       .  A
C841        C846   1.407   1_565  A
C842        C843   1.401       .  A
C842        H853   1.083       .  S
C843        C844   1.406       .  A
C843        H854   1.083       .  S
C844        C845   1.407   1_565  A
C845        C846   1.396       .  A
C845        H855   1.083       .  S
C846        H856   1.080       .  S
C857        C858   1.407       .  A
C857        C862   1.407       .  A
C858        C859   1.399       .  A
C858        H871   1.083       .  S
C859        C860   1.404       .  A
C859        H872   1.083       .  S
C860        C861   1.410       .  A
C860        C863   1.493       .  S
C861        C862   1.401       .  A
C861        H873   1.080       .  S
C862        H874   1.083       .  S
C863        C864   1.350       .  D
C863        H875   1.084       .  S
C864        C865   1.491       .  S
C864        H876   1.084       .  S
C865        C866   1.404       .  A
C865        C870   1.409       .  A
C866        C867   1.399       .  A
C866        H877   1.083       .  S
C867        C868   1.406       .  A
C867        H878   1.083       .  S
C868        C869   1.407       .  A
C869        C870   1.401       .  A
C869        H879   1.083       .  S
C870        H880   1.081       .  S
C881        C882   1.403       .  A
C881        C886   1.404   1_545  A
C882        C883   1.397       .  A
C882        H895   1.083       .  S
C883        C884   1.405       .  A
C883        H896   1.083       .  S
C884        C885   1.410   1_545  A
C884        C887   1.490       .  S
C885        C886   1.402       .  A
C885        H897   1.081       .  S
C886        H898   1.083       .  S
C887        C888   1.349       .  D
C887        H899   1.085   1_545  S
C888        C889   1.491       .  S
C888        H900   1.085       .  S
C889        C890   1.404       .  A
C889        C894   1.408   1_545  A
C890        C891   1.400       .  A
C890        H901   1.083       .  S
C891        C892   1.407       .  A
C891        H902   1.083       .  S
C892        C893   1.407   1_545  A
C893        C894   1.400       .  A
C893        H903   1.083       .  S
C894        H904   1.082       .  S
C905        C906   1.406       .  A
C905        C910   1.406       .  A
C906        C907   1.398       .  A
C906        H919   1.083       .  S
C907        C908   1.404       .  A
C907        H920   1.083       .  S
C908        C909   1.411       .  A
C908        C911   1.495       .  S
C909        C910   1.400       .  A
C909        H921   1.079       .  S
C910        H922   1.083       .  S
C911        C912   1.349       .  D
C911        H923   1.085       .  S
C912        C913   1.490       .  S
C912        H924   1.082       .  S
C913        C914   1.402       .  A
C913        C918   1.410       .  A
C914        C915   1.396       .  A
C914        H925   1.084       .  S
C915        C916   1.407       .  A
C915        H926   1.083       .  S
C916        C917   1.406       .  A
C917        C918   1.403       .  A
C917        H927   1.083       .  S
C918        H928   1.081       .  S
C929        C930   1.407       .  A
C929        C934   1.407       .  A
C930        C931   1.402       .  A
C930        H943   1.083       .  S
C931        C932   1.404       .  A
C931        H944   1.083       .  S
C932        C933   1.407       .  A
C932        C935   1.490       .  S
C933        C934   1.397       .  A
C933        H945   1.082       .  S
C934        H946   1.083       .  S
C935        C936   1.348       .  D
C935        H947   1.085       .  S
C936        C937   1.488       .  S
C936        H948   1.085       .  S
C937        C938   1.403       .  A
C937        C942   1.410       .  A
C938        C939   1.395       .  A
C938        H949   1.083       .  S
C939        C940   1.403       .  A
C939        H950   1.083       .  S
C940        C941   1.404       .  A
C941        C942   1.404       .  A
C941        H951   1.083   1_554  S
C942        H952   1.082       .  S
C953        C954   1.406       .  A
C953        C958   1.407       .  A
C954        C955   1.400       .  A
C954        H967   1.083       .  S
C955        C956   1.405       .  A
C955        H968   1.083       .  S
C956        C957   1.409       .  A
C956        C959   1.495       .  S
C957        C958   1.400       .  A
C957        H969   1.080       .  S
C958        H970   1.083       .  S
C959        C960   1.350       .  D
C959        H971   1.084       .  S
C960        C961   1.494       .  S
C960        H972   1.084       .  S
C961        C962   1.404       .  A
C961        C966   1.410       .  A
C962        C963   1.398       .  A
C962        H973   1.084       .  S
C963        C964   1.407       .  A
C963        H974   1.083       .  S
C964        C965   1.407       .  A
C965        C966   1.403       .  A
C965        H975   1.083       .  S
C966        H976   1.080       .  S
C977        C978   1.407       .  A
C977        C982   1.407       .  A
C978        C979   1.401       .  A
C978        H991   1.083       .  S
C979        C980   1.404       .  A
C979        H992   1.083       .  S
C980        C981   1.407       .  A
C980        C983   1.489       .  S
C981        C982   1.398       .  A
C981        H993   1.082       .  S
C982        H994   1.083       .  S
C983        C984   1.348       .  D
C983        H995   1.085       .  S
C984        C985   1.488       .  S
C984        H996   1.085       .  S
C985        C986   1.404       .  A
C985        C990   1.409       .  A
C986        C987   1.397       .  A
C986        H997   1.083       .  S
C987        C988   1.403       .  A
C987        H998   1.083       .  S
C988        C989   1.403       .  A
C989        C990   1.401       .  A
C989        H999   1.083       .  S
C990       H1000   1.081       .  S
C1001      C1002   1.406       .  A
C1001      C1006   1.408       .  A
C1002      C1003   1.397       .  A
C1002      H1015   1.083       .  S
C1003      C1004   1.403       .  A
C1003      H1016   1.084       .  S
C1004      C1005   1.409       .  A
C1004      C1007   1.490       .  S
C1005      C1006   1.403       .  A
C1005      H1017   1.081       .  S
C1006      H1018   1.083       .  S
C1007      C1008   1.349       .  D
C1007      H1019   1.086       .  S
C1008      C1009   1.491       .  S
C1008      H1020   1.085       .  S
C1009      C1010   1.405       .  A
C1009      C1014   1.408       .  A
C1010      C1011   1.402       .  A
C1010      H1021   1.083       .  S
C1011      C1012   1.407       .  A
C1011      H1022   1.083       .  S
C1012      C1013   1.406       .  A
C1013      C1014   1.398       .  A
C1013      H1023   1.083       .  S
C1014      H1024   1.082       .  S
C1025      C1026   1.406       .  A
C1025      C1030   1.407       .  A
C1026      C1027   1.398       .  A
C1026      H1039   1.083       .  S
C1027      C1028   1.403       .  A
C1027      H1040   1.084       .  S
C1028      C1029   1.408       .  A
C1028      C1031   1.488       .  S
C1029      C1030   1.399       .  A
C1029      H1041   1.081       .  S
C1030      H1042   1.083       .  S
C1031      C1032   1.348       .  D
C1031      H1043   1.084       .  S
C1032      C1033   1.489       .  S
C1032      H1044   1.085       .  S
C1033      C1034   1.405       .  A
C1033      C1038   1.408       .  A
C1034      C1035   1.399       .  A
C1034      H1045   1.083       .  S
C1035      C1036   1.405       .  A
C1035      H1046   1.083       .  S
C1036      C1037   1.406       .  A
C1037      C1038   1.398       .  A
C1037      H1047   1.083       .  S
C1038      H1048   1.081       .  S
C1049      C1050   1.406       .  A
C1049      C1054   1.407       .  A
C1050      C1051   1.399       .  A
C1050      H1063   1.083       .  S
C1051      C1052   1.404       .  A
C1051      H1064   1.083       .  S
C1052      C1053   1.409       .  A
C1052      C1055   1.490       .  S
C1053      C1054   1.401       .  A
C1053      H1065   1.081       .  S
C1054      H1066   1.083       .  S
C1055      C1056   1.348       .  D
C1055      H1067   1.085       .  S
C1056      C1057   1.491       .  S
C1056      H1068   1.085       .  S
C1057      C1058   1.403       .  A
C1057      C1062   1.409       .  A
C1058      C1059   1.398       .  A
C1058      H1069   1.084       .  S
C1059      C1060   1.407       .  A
C1059      H1070   1.083       .  S
C1060      C1061   1.406       .  A
C1061      C1062   1.401       .  A
C1061      H1071   1.083       .  S
C1062      H1072   1.081       .  S
C1073      C1074   1.405       .  A
C1073      C1078   1.408       .  A
C1074      C1075   1.398       .  A
C1074      H1087   1.083       .  S
C1075      C1076   1.405       .  A
C1075      H1088   1.083       .  S
C1076      C1077   1.408       .  A
C1076      C1079   1.491       .  S
C1077      C1078   1.401       .  A
C1077      H1089   1.080       .  S
C1078      H1090   1.083       .  S
C1079      C1080   1.351       .  D
C1079      H1091   1.084       .  S
C1080      C1081   1.493       .  S
C1080      H1092   1.084       .  S
C1081      C1082   1.406       .  A
C1081      C1086   1.407       .  A
C1082      C1083   1.403       .  A
C1082      H1093   1.083       .  S
C1083      C1084   1.407       .  A
C1083      H1094   1.083       .  S
C1084      C1085   1.407       .  A
C1085      C1086   1.397       .  A
C1085      H1095   1.083       .  S
C1086      H1096   1.081       .  S
C1097      C1098   1.407   1_545  A
C1097      C1102   1.407       .  A
C1098      C1099   1.395       .  A
C1098      H1111   1.083       .  S
C1099      C1100   1.401   1_565  A
C1099      H1112   1.084       .  S
C1100      C1101   1.410       .  A
C1100      C1103   1.490       .  S
C1101      C1102   1.404       .  A
C1101      H1113   1.081       .  S
C1102      H1114   1.083       .  S
C1103      C1104   1.347       .  D
C1103      H1115   1.085   1_545  S
C1104      C1105   1.490       .  S
C1104      H1116   1.085       .  S
C1105      C1106   1.404       .  A
C1105      C1110   1.410       .  A
C1106      C1107   1.398       .  A
C1106      H1117   1.083       .  S
C1107      C1108   1.403       .  A
C1107      H1118   1.083       .  S
C1108      C1109   1.404       .  A
C1109      C1110   1.400       .  A
C1109      H1119   1.083   1_545  S
C1110      H1120   1.081       .  S
C1121      C1122   1.405       .  A
C1121      C1126   1.405       .  A
C1122      C1123   1.399       .  A
C1122      H1135   1.083       .  S
C1123      C1124   1.402       .  A
C1123      H1136   1.083       .  S
C1124      C1125   1.405       .  A
C1124      C1127   1.479       .  S
C1125      C1126   1.399       .  A
C1125      H1137   1.083       .  S
C1126      H1138   1.083       .  S
C1127      C1128   1.344       .  D
C1127      H1139   1.087       .  S
C1128      C1129   1.479       .  S
C1128      H1140   1.087       .  S
C1129      C1130   1.402       .  A
C1129      C1134   1.404       .  A
C1130      C1131   1.399       .  A
C1130      H1141   1.083       .  S
C1131      C1132   1.406       .  A
C1131      H1142   1.083       .  S
C1132      C1133   1.406       .  A
C1133      C1134   1.398       .  A
C1133      H1143   1.083       .  S
C1134      H1144   1.083       .  S
