geometry optimzed in LAMMPS
_audit_creation_date              2020-11-30 
_audit_creation_method            'lammps2cif' 
_symmetry_space_group_name_H-M    'P1' 
_symmetry_Int_Tables_number       1 
_symmetry_cell_setting            triclinic 
loop_ 
_symmetry_equiv_pos_as_xyz 
  x,y,z 
_cell_length_a                    48.529831819689015 
_cell_length_b                    48.606473329472436 
_cell_length_c                    48.614482509733385 
_cell_angle_alpha                 89.9022654885727 
_cell_angle_beta                  89.0641430181399 
_cell_angle_gamma                 89.94515147180265 
loop_ 
_atom_site_label 
_atom_site_type_symbol 
_atom_site_fract_x 
_atom_site_fract_y 
_atom_site_fract_z 
_atom_site_charge 
O1          O  0.09445617  0.45708739  0.48699103    -0.72840
O2          O  0.09618434  0.53559530  0.50885804    -0.73820
O3          O  0.09712150  0.48306803  0.53587871    -0.62440
O4          O  0.09809471  0.50715177  0.45918237    -0.70850
O5          O  0.05419667  0.51837346  0.46231721    -0.70410
O6          O  0.05814198  0.50407056  0.54581494    -0.61660
O7          O  0.05603929  0.52906377  0.53180554    -0.74170
O8          O  0.04997508  0.45324696  0.49794304    -0.72950
Cu9        Cu  0.09610313  0.49593005  0.49742897     1.04560
Cu10       Cu  0.02621377  0.50303743  0.50150703     1.04330
C11         C  0.07361714  0.44220124  0.49241912     0.93360
C12         C  0.07727001  0.54497330  0.52475015     0.92490
C13         C  0.07984952  0.49012506  0.55417848     0.84640
C14         C  0.07711049  0.51777993  0.44881072     0.90910
O15         O  0.52561145  0.95165354  0.54110067    -0.72840
O16         O  0.54528790  0.94684323  0.46273372    -0.73820
O17         O  0.57386161  0.94433651  0.51325565    -0.62440
O18         O  0.49838216  0.95276276  0.49187868    -0.70850
O19         O  0.50504401  0.99444803  0.47486031    -0.70410
O20         O  0.58639414  0.98200973  0.49042536    -0.61660
O21         O  0.57112648  0.98453401  0.46703055    -0.74170
O22         O  0.53698089  0.99550285  0.54409525    -0.72950
Cu23       Cu  0.53557409  0.94912043  0.50216568     1.04560
Cu24       Cu  0.54471165  0.01759291  0.49477753     1.04330
C25         C  0.52969242  0.97284607  0.55564821     0.93360
C26         C  0.56119703  0.96440667  0.45171689     0.92490
C27         C  0.59310754  0.95963906  0.50450546     0.84640
C28         C  0.48956716  0.97308624  0.47849135     0.90910
O29         O  0.99237864  0.53743275  0.47757208    -0.72840
O30         O  0.98480076  0.46011277  0.50331041    -0.73820
O31         O  0.97828100  0.51454094  0.52595229    -0.62440
O32         O  0.99388085  0.48632321  0.45442948    -0.70850
O33         O  0.03770174  0.47631034  0.46163713    -0.70410
O34         O  0.01559738  0.49308029  0.54055660    -0.61660
O35         O  0.02103291  0.46763809  0.52991155    -0.74170
O36         O  0.03456537  0.54220261  0.49494386    -0.72950
Cu37       Cu  0.98763195  0.49931864  0.49038577     1.04560
Cu38       Cu  0.05678296  0.49256947  0.50554251     1.04330
C39         C  0.01294131  0.55228014  0.48359869     0.93360
C40         C  0.00233698  0.45052074  0.52006141     0.92490
C41         C  0.99391012  0.50865894  0.54521387     0.84640
C42         C  0.01661664  0.47738298  0.44579938     0.90910
O43         O  0.49492522  0.48855485  0.00822696    -0.72840
O44         O  0.57265697  0.52472947  0.01782411    -0.73820
O45         O  0.56252583  0.45665416  0.01150873    -0.62440
O46         O  0.55000624  0.53815769  0.02123428    -0.70850
O47         O  0.52625659  0.52897717  0.05923605    -0.70410
O48         O  0.55333090  0.45203263  0.05572226    -0.61660
O49         O  0.58030236  0.50166583  0.05664084    -0.74170
O50         O  0.50053864  0.47757299  0.05230164    -0.72950
Cu51       Cu  0.54445299  0.49726210  0.98673411     1.04560
Cu52       Cu  0.54003662  0.48992354  0.05564538     1.04330
C53         C  0.48489752  0.48033020  0.03147207     0.93360
C54         C  0.58992712  0.51673917  0.03733410     0.92490
C55         C  0.56478416  0.44294539  0.03422630     0.84640
C56         C  0.53517071  0.54683688  0.04243531     0.90910
N57         N  0.24345092  0.42612366  0.04686520    -0.27190
N58         N  0.23157043  0.40745226  0.06296821    -0.35050
C59         C  0.20456401  0.40634907  0.05768051     0.01150
C60         C  0.19892620  0.42500150  0.03718912     0.07180
C61         C  0.22392783  0.43756881  0.03102315    -0.05920
H62         H  0.18977007  0.39407102  0.06917617     0.07840
H63         H  0.22736139  0.45471686  0.01717327     0.09040
Cu64       Cu  0.25054476  0.38552820  0.09371158     0.44170
Cu65       Cu  0.28532033  0.43629691  0.04885740     0.41990
Cu66       Cu  0.32212853  0.39105637  0.09591708     0.43880
N67         N  0.27359707  0.36299531  0.12097470    -0.34570
N68         N  0.30075615  0.36389071  0.12047382    -0.28830
C69         C  0.31057745  0.34638495  0.13931748    -0.04930
C70         C  0.28837059  0.33423663  0.15258241     0.07290
C71         C  0.26519228  0.34525962  0.14060788     0.01080
H72         H  0.33218338  0.34344570  0.14363221     0.08730
H73         H  0.24389887  0.34053478  0.14554063     0.07810
N74         N  0.34000775  0.42290949  0.07447784    -0.36020
N75         N  0.32738509  0.43960388  0.05724314    -0.28200
C76         C  0.34619630  0.45730360  0.04668423    -0.03440
C77         C  0.37146213  0.45165882  0.05847744     0.05170
C78         C  0.36674055  0.42950091  0.07553933     0.03260
H79         H  0.34198432  0.47268986  0.03119976     0.08370
H80         H  0.38187933  0.41803292  0.08695217     0.07200
N81         N  0.11741248  0.44880611  0.70967229    -0.27190
N82         N  0.12828084  0.42693486  0.69748618    -0.35050
C83         C  0.12838660  0.43054376  0.67007334     0.01150
C84         C  0.11755519  0.45618289  0.66429170     0.07180
C85         C  0.11047728  0.46700754  0.68999591    -0.05920
H86         H  0.13499714  0.41503328  0.65554267     0.07840
H87         H  0.10048647  0.48652866  0.69402709     0.09040
Cu88       Cu  0.14452058  0.39335719  0.71753377     0.44170
Cu89       Cu  0.11221294  0.45261832  0.75265003     0.41990
Cu90       Cu  0.15679819  0.40509545  0.78793696     0.43880
N91         N  0.16963205  0.36820754  0.74035021    -0.34570
N92         N  0.17538442  0.37353941  0.76623912    -0.28830
C93         C  0.19468073  0.35579724  0.77481791    -0.04930
C94         C  0.20126976  0.33843829  0.75321111     0.07290
C95         C  0.18495252  0.34677301  0.73169049     0.01080
H96         H  0.20351853  0.35584686  0.79510195     0.08730
H97         H  0.18514041  0.33876154  0.71093877     0.07810
N98         N  0.13180356  0.43325978  0.80791181    -0.36020
N99         N  0.11427419  0.45003424  0.79584045    -0.28200
C100        C  0.09910316  0.46283202  0.81563875    -0.03440
C101        C  0.10793126  0.45379433  0.84130992     0.05170
C102        C  0.12860044  0.43506581  0.83525833     0.03260
H103        H  0.08207818  0.47643972  0.81147040     0.08370
H104        H  0.13980852  0.42263706  0.84980001     0.07200
N105        N  0.99373595  0.44012492  0.28950748    -0.27190
N106        N  0.97423412  0.42596618  0.30249008    -0.35050
C107        C  0.97523109  0.43151638  0.32949627     0.01150
C108        C  0.99622265  0.45013210  0.33354136     0.07180
C109        C  0.00762980  0.45512957  0.30786121    -0.05920
H110        H  0.96215642  0.42213073  0.34511139     0.07840
H111        H  0.02528616  0.46781856  0.30289811     0.09040
Cu112      Cu  0.94826976  0.39846217  0.28344015     0.44170
Cu113      Cu  0.00269363  0.43615768  0.24812988     0.41990
Cu114      Cu  0.96069417  0.38697759  0.21141697     0.43880
N115        N  0.92414091  0.37287101  0.25991198    -0.34570
N116        N  0.92771008  0.36952123  0.23311035    -0.28830
C117        C  0.90832725  0.35208440  0.22395148    -0.04930
C118        C  0.89224132  0.34377737  0.24622987     0.07290
C119        C  0.90292093  0.35724017  0.26866139     0.01080
H120        H  0.90690559  0.34497127  0.20295052     0.08730
H121        H  0.89592608  0.35563660  0.28985121     0.07810
N122        N  0.99524495  0.40663640  0.19464545    -0.36020
N123        N  0.00997650  0.42518667  0.20771358    -0.28200
C124        C  0.02768337  0.43716527  0.18979891    -0.03440
C125        C  0.02436844  0.42530125  0.16423850     0.05170
C126        C  0.00351427  0.40614107  0.16817040     0.03260
H127        H  0.03988423  0.45515943  0.19436395     0.08370
H128        H  0.99280819  0.39520167  0.15219683     0.07200
O129        O  0.02100825  0.44404900  0.03663227    -0.72840
O130        O  0.04777680  0.44986639  0.95968713    -0.73820
O131        O  0.07130764  0.43826034  0.00754356    -0.62440
O132        O  0.99642131  0.44949337  0.98577838    -0.70850
O133        O  0.00071970  0.49385736  0.98019848    -0.70410
O134        O  0.07213669  0.47881418  0.02662418    -0.61660
O135        O  0.07184945  0.48834354  0.96880795    -0.74170
O136        O  0.03922562  0.48587387  0.04245800    -0.72950
Cu137      Cu  0.03355650  0.44573879  0.99759178     1.04560
Cu138      Cu  0.04010048  0.51647821  0.00163425     1.04330
C139        C  0.02899256  0.46312345  0.05246872     0.93360
C140        C  0.06705411  0.46679237  0.95356534     0.92490
C141        C  0.08479157  0.45648664  0.01948462     0.84640
C142        C  0.98735685  0.47165632  0.97609723     0.90910
N143        N  0.82953831  0.56075730  0.06002802    -0.27190
N144        N  0.84025469  0.57025418  0.08298138    -0.35050
C145        C  0.86772880  0.56735327  0.08203219     0.01150
C146        C  0.87513820  0.55588043  0.05711796     0.07180
C147        C  0.85038400  0.55140648  0.04377411    -0.05920
H148        H  0.88126963  0.57321117  0.09845672     0.07840
H149        H  0.84783011  0.54250470  0.02359707     0.09040
Cu150      Cu  0.81878157  0.59015343  0.11376809     0.44170
Cu151      Cu  0.78686085  0.56264224  0.05253703     0.41990
Cu152      Cu  0.75161320  0.61225363  0.09759816     0.43880
N153        N  0.79827332  0.61966230  0.13626260    -0.34570
N154        N  0.77382003  0.62907122  0.12935622    -0.28830
C155        C  0.76720304  0.65045836  0.14564685    -0.04930
C156        C  0.78859446  0.65450558  0.16366092     0.07290
C157        C  0.80791969  0.63459647  0.15722347     0.01080
H158        H  0.74847586  0.66241927  0.14414359     0.08730
H159        H  0.82804508  0.63200154  0.16612466     0.07810
N160        N  0.73180605  0.58845537  0.06877351    -0.36020
N161        N  0.74394586  0.56985510  0.05282286    -0.28200
C162        C  0.72415744  0.55590671  0.03949892    -0.03440
C163        C  0.69852935  0.56660226  0.04710171     0.05170
C164        C  0.70434700  0.58690747  0.06595432     0.03260
H165        H  0.72797372  0.53831892  0.02637162     0.08370
H166        H  0.68963205  0.59818391  0.07851916     0.07200
N167        N  0.97830984  0.55762050  0.70028371    -0.27190
N168        N  0.96235267  0.57699396  0.68992294    -0.35050
C169        C  0.96097907  0.57399097  0.66257117     0.01150
C170        C  0.97721639  0.55198826  0.65487478     0.07180
C171        C  0.98768128  0.54172989  0.67931723    -0.05920
H172        H  0.94847434  0.58663210  0.64935175     0.07840
H173        H  0.00107744  0.52409964  0.68161857     0.09040
Cu174      Cu  0.94156363  0.60646349  0.71233072     0.44170
Cu175      Cu  0.98532559  0.55445972  0.74285596     0.41990
Cu176      Cu  0.93936634  0.59984541  0.78424358     0.43880
N177        N  0.91674628  0.63088347  0.73670170    -0.34570
N178        N  0.91439369  0.62737324  0.76355785    -0.28830
C179        C  0.89494517  0.64464759  0.77346579    -0.04930
C180        C  0.88504388  0.65992727  0.75167394     0.07290
C181        C  0.89936374  0.65074230  0.72872009     0.01080
H182        H  0.88874643  0.64619667  0.79488431     0.08730
H183        H  0.89674481  0.65735192  0.70765993     0.07810
N184        N  0.97000310  0.57498270  0.80029350    -0.36020
N185        N  0.98673296  0.55863874  0.78597692    -0.28200
C186        C  0.00419184  0.54637671  0.80360779    -0.03440
C187        C  0.99840112  0.55592856  0.82997613     0.05170
C188        C  0.97642606  0.57365523  0.82703747     0.03260
H189        H  0.02002793  0.53176589  0.79769294     0.08370
H190        H  0.96565695  0.58469998  0.84325649     0.07200
N191        N  0.08906266  0.57207275  0.20481170    -0.27190
N192        N  0.10594258  0.59001123  0.19280731    -0.35050
C193        C  0.10202864  0.58987825  0.16552656     0.01150
C194        C  0.08210765  0.57063203  0.15966317     0.07180
C195        C  0.07410937  0.55980249  0.18504631    -0.05920
H196        H  0.11417805  0.60159991  0.15079356     0.07840
H197        H  0.05960375  0.54325813  0.18868580     0.09040
Cu198      Cu  0.13665487  0.61188733  0.21208227     0.44170
Cu199      Cu  0.08914229  0.56388494  0.24751798     0.41990
Cu200      Cu  0.14285856  0.60232381  0.28318208     0.43880
N201        N  0.16589067  0.63249950  0.23463656    -0.34570
N202        N  0.16717593  0.63000126  0.26161769    -0.28830
C203        C  0.18655120  0.64715866  0.27108805    -0.04930
C204        C  0.19837896  0.66062641  0.24880798     0.07290
C205        C  0.18494749  0.65077470  0.22598522     0.01080
H206        H  0.19194023  0.64928814  0.29248675     0.08730
H207        H  0.18824839  0.65696383  0.20480082     0.07810
N208        N  0.11693917  0.57408760  0.30198515    -0.36020
N209        N  0.09672710  0.56059434  0.29006497    -0.28200
C210        C  0.08299206  0.54597992  0.30964359    -0.03440
C211        C  0.09554940  0.55025540  0.33491860     0.05170
C212        C  0.11689590  0.56822180  0.32892233     0.03260
H213        H  0.06455818  0.53430728  0.30580023     0.08370
H214        H  0.13106747  0.57711574  0.34337542     0.07200
O215        O  0.04054760  0.55974590  0.03266393    -0.72840
O216        O  0.02432470  0.55294158  0.95491283    -0.73820
O217        O  0.99477099  0.54775494  0.00442372    -0.62440
O218        O  0.07329408  0.55791752  0.98259491    -0.70850
O219        O  0.08204187  0.51758158  0.00298618    -0.70410
O220        O  0.00236750  0.50629920  0.02336468    -0.61660
O221        O  0.03492225  0.50938000  0.95509789    -0.74170
O222        O  0.06604808  0.52260295  0.03221829    -0.72950
Cu223      Cu  0.03315837  0.55444815  0.99342312     1.04560
Cu224      Cu  0.04282945  0.48425767  0.99906527     1.04330
C225        C  0.05576069  0.54351410  0.04552473     0.93360
C226        C  0.02843820  0.53108105  0.94176368     0.92490
C227        C  0.98663261  0.52782201  0.01967514     0.84640
C228        C  0.09033735  0.53921656  0.98941069     0.90910
N229        N  0.74915603  0.43962816  0.94289377    -0.27190
N230        N  0.73656917  0.42458400  0.92437456    -0.35050
C231        C  0.70944896  0.42889698  0.92621760     0.01150
C232        C  0.70376039  0.44721046  0.94742145     0.07180
C233        C  0.72982719  0.45341253  0.95767888    -0.05920
H234        H  0.69500534  0.41953750  0.91237550     0.07840
H235        H  0.73491944  0.46684830  0.97439063     0.09040
Cu236      Cu  0.75474496  0.39832623  0.89654142     0.44170
Cu237      Cu  0.79220844  0.44259909  0.94411722     0.41990
Cu238      Cu  0.82270540  0.41234568  0.88111418     0.43880
N239        N  0.77604173  0.37606586  0.86745246    -0.34570
N240        N  0.80171009  0.38228597  0.86081515    -0.28830
C241        C  0.81082103  0.36512133  0.84112022    -0.04930
C242        C  0.78969886  0.34718807  0.83521716     0.07290
C243        C  0.76790062  0.35459629  0.85227890     0.01080
H244        H  0.83136248  0.36544863  0.83214513     0.08730
H245        H  0.74764583  0.34534595  0.85341506     0.07810
N246        N  0.84403969  0.43449182  0.90949620    -0.36020
N247        N  0.83413754  0.44415291  0.93309805    -0.28200
C248        C  0.85536126  0.45417558  0.94757975    -0.03440
C249        C  0.87945438  0.45018597  0.93232004     0.05170
C250        C  0.87135158  0.43819618  0.90818389     0.03260
H251        H  0.85354324  0.46294406  0.96796959     0.08370
H252        H  0.88425418  0.43213334  0.89092688     0.07200
N253        N  0.24652472  0.56086836  0.94003960    -0.27190
N254        N  0.23223713  0.57550066  0.92222208    -0.35050
C255        C  0.20519709  0.57218318  0.92731465     0.01150
C256        C  0.20189467  0.55453360  0.94929400     0.07180
C257        C  0.22850432  0.54784649  0.95715524    -0.05920
H258        H  0.18903995  0.58258603  0.91627386     0.07840
H259        H  0.23427802  0.53483971  0.97419886     0.09040
Cu260      Cu  0.24866404  0.60229162  0.89338011     0.44170
Cu261      Cu  0.29005609  0.56102508  0.94003870     0.41990
Cu262      Cu  0.31732606  0.62191251  0.90653905     0.43880
N263        N  0.26831011  0.63369443  0.87232831    -0.34570
N264        N  0.29326173  0.64192908  0.87883996    -0.28830
C265        C  0.30118667  0.66230343  0.86194761    -0.04930
C266        C  0.28021265  0.66706083  0.84378059     0.07290
C267        C  0.25957214  0.64863787  0.85085292     0.01080
H268        H  0.32127255  0.67193069  0.86207752     0.08730
H269        H  0.23996052  0.64597386  0.84094134     0.07810
N270        N  0.34185217  0.59189321  0.92251161    -0.36020
N271        N  0.33251315  0.56900013  0.93399533    -0.28200
C272        C  0.35442725  0.55366030  0.94110341    -0.03440
C273        C  0.37851064  0.56749119  0.93333830     0.05170
C274        C  0.36953444  0.59183799  0.92198591     0.03260
H275        H  0.35307145  0.53427469  0.95201468     0.08370
H276        H  0.38195189  0.60902240  0.91512016     0.07200
O277        O  0.57242123  0.47968953  0.94789843    -0.72840
O278        O  0.49423483  0.50948147  0.94838737    -0.73820
O279        O  0.55000042  0.53124423  0.94512688    -0.62440
O280        O  0.51812607  0.45916994  0.94803589    -0.70850
O281        O  0.52046250  0.45547473  0.99312026    -0.70410
O282        O  0.52755374  0.53734592  0.98401576    -0.61660
O283        O  0.50104357  0.52894376  0.98925937    -0.74170
O284        O  0.58308201  0.49100771  0.99094709    -0.72950
Cu285      Cu  0.53347889  0.49491668  0.94785750     1.04560
Cu286      Cu  0.53254305  0.49979909  0.01733224     1.04330
C287        C  0.59003603  0.48184009  0.96705043     0.93360
C288        C  0.48451099  0.52431521  0.96786991     0.92490
C289        C  0.54408893  0.54671832  0.96488038     0.84640
C290        C  0.51516563  0.44479994  0.96931860     0.90910
N291        N  0.61879297  0.29016907  0.06015888    -0.27190
N292        N  0.63114281  0.30089727  0.08158864    -0.35050
C293        C  0.62973305  0.32845722  0.08062486     0.01150
C294        C  0.61633011  0.33611822  0.05695091     0.07180
C295        C  0.60956766  0.31106828  0.04454455    -0.05920
H296        H  0.63697126  0.34165793  0.09678052     0.07840
H297        H  0.59791414  0.30821453  0.02599291     0.09040
Cu298      Cu  0.65016935  0.27805075  0.11085454     0.44170
Cu299      Cu  0.61339058  0.24724564  0.05578024     0.41990
Cu300      Cu  0.64832228  0.20479512  0.10835680     0.43880
N301        N  0.67501690  0.25390958  0.13412749    -0.34570
N302        N  0.67441413  0.22674667  0.13428883    -0.28830
C303        C  0.69420807  0.21765838  0.15124740    -0.04930
C304        C  0.70800914  0.24038470  0.16145876     0.07290
C305        C  0.69529385  0.26290300  0.15015634     0.01080
H306        H  0.69893310  0.19623127  0.15497095     0.08730
H307        H  0.70048995  0.28432429  0.15313388     0.07810
N308        N  0.62291066  0.18900842  0.07766985    -0.36020
N309        N  0.61036300  0.20392266  0.05872711    -0.28200
C310        C  0.59692028  0.18670063  0.04171448    -0.03440
C311        C  0.60106912  0.15980005  0.05040913     0.05170
C312        C  0.61787030  0.16216303  0.07302889     0.03260
H313        H  0.58585234  0.19318289  0.02368729     0.08370
H314        H  0.62659143  0.14542661  0.08474039     0.07200
N315        N  0.59070550  0.70368262  0.94313295    -0.27190
N316        N  0.60537848  0.69021866  0.92435388    -0.35050
C317        C  0.59925539  0.66338796  0.92609131     0.01150
C318        C  0.58010122  0.65918752  0.94725465     0.07180
C319        C  0.57532433  0.68545657  0.95768810    -0.05920
H320        H  0.60867651  0.64783150  0.91311034     0.07840
H321        H  0.56258385  0.69114213  0.97512058     0.09040
Cu322      Cu  0.63548666  0.70706572  0.89829548     0.44170
Cu323      Cu  0.59267604  0.74627091  0.94832892     0.41990
Cu324      Cu  0.64971439  0.77686400  0.91003843     0.43880
N325        N  0.66487308  0.72860505  0.87517753    -0.34570
N326        N  0.66909030  0.75511800  0.87912450    -0.28830
C327        C  0.68741818  0.76448708  0.86036390    -0.04930
C328        C  0.69566893  0.74263983  0.84415040     0.07290
C329        C  0.68118467  0.72008558  0.85416151     0.01080
H330        H  0.69459144  0.78552434  0.85900895     0.08730
H331        H  0.68199822  0.69925513  0.84638469     0.07810
N332        N  0.62425283  0.79826050  0.93649067    -0.36020
N333        N  0.60196639  0.78819445  0.94869556    -0.28200
C334        C  0.58756603  0.80920322  0.95993550    -0.03440
C335        C  0.60193393  0.83363640  0.95511880     0.05170
C336        C  0.62514805  0.82548702  0.94027120     0.03260
H337        H  0.56763261  0.80670739  0.96968502     0.08370
H338        H  0.64119961  0.83847116  0.93168549     0.07200
N339        N  0.60341526  0.94254495  0.20878275    -0.27190
N340        N  0.62195524  0.92724464  0.19566540    -0.35050
C341        C  0.62043073  0.93182045  0.16856797     0.01150
C342        C  0.59984156  0.95081417  0.16374604     0.07180
C343        C  0.58928692  0.95705454  0.18986862    -0.05920
H344        H  0.63352885  0.92185322  0.15336096     0.07840
H345        H  0.57230663  0.97059728  0.19487056     0.09040
Cu346      Cu  0.64882845  0.89954058  0.21308289     0.44170
Cu347      Cu  0.59908411  0.94293731  0.25202489     0.41990
Cu348      Cu  0.64794736  0.89606019  0.28439393     0.43880
N349        N  0.67528200  0.87411703  0.23408601    -0.34570
N350        N  0.67555088  0.87385420  0.26119138    -0.28830
C351        C  0.69540920  0.85680681  0.26974240    -0.04930
C352        C  0.70795900  0.84546347  0.24677129     0.07290
C353        C  0.69467518  0.85670758  0.22443868     0.01080
H354        H  0.69988992  0.85253605  0.29105673     0.08730
H355        H  0.69898772  0.85282758  0.20288799     0.07810
N356        N  0.62040302  0.92011954  0.30572177    -0.36020
N357        N  0.60285766  0.93776332  0.29488886    -0.28200
C358        C  0.58931232  0.95056383  0.31573540    -0.03440
C359        C  0.59929874  0.94061018  0.34053287     0.05170
C360        C  0.61843065  0.92094598  0.33321605     0.03260
H361        H  0.57354335  0.96604569  0.31310790     0.08370
H362        H  0.62981494  0.90762592  0.34675171     0.07200
O363        O  0.60131244  0.96050275  0.98431711    -0.72840
O364        O  0.59950574  0.03429343  0.01235072    -0.73820
O365        O  0.59794795  0.98364903  0.03547421    -0.62440
O366        O  0.59653957  0.01029121  0.95750909    -0.70850
O367        O  0.55573031  0.02979765  0.96631453    -0.70410
O368        O  0.55312740  0.99170483  0.04368038    -0.61660
O369        O  0.56075868  0.04205401  0.99106093    -0.74170
O370        O  0.55629541  0.96108887  0.98044997    -0.72950
Cu371      Cu  0.59830818  0.99717100  0.99721167     1.04560
Cu372      Cu  0.52756321  0.00066662  0.99474824     1.04330
C373        C  0.57957858  0.94867381  0.97787995     0.93360
C374        C  0.58135833  0.05104944  0.00542695     0.92490
C375        C  0.57721172  0.98434206  0.05176017     0.84640
C376        C  0.57638243  0.02467188  0.94881606     0.90910
N377        N  0.49564710  0.79021379  0.06629483    -0.27190
N378        N  0.47679038  0.80195668  0.08236461    -0.35050
C379        C  0.47754491  0.82930171  0.07885336     0.01150
C380        C  0.49805458  0.83535425  0.05995298     0.07180
C381        C  0.50894118  0.81012979  0.05200044    -0.05920
H382        H  0.46391842  0.84372402  0.08918848     0.07840
H383        H  0.52540192  0.80648717  0.03722554     0.09040
Cu384      Cu  0.45040455  0.78169368  0.10886186     0.44170
Cu385      Cu  0.50284482  0.74767809  0.06589730     0.41990
Cu386      Cu  0.45842971  0.71056907  0.11594270     0.43880
N387        N  0.42450735  0.75883109  0.13361032    -0.34570
N388        N  0.42631298  0.73180645  0.13547647    -0.28830
C389        C  0.40602271  0.72268221  0.15244083    -0.04930
C390        C  0.39130417  0.74530810  0.16197132     0.07290
C391        C  0.40365738  0.76783395  0.14968742     0.01080
H392        H  0.40289698  0.70139767  0.15822252     0.08730
H393        H  0.39788925  0.78920777  0.15216738     0.07810
N394        N  0.49202840  0.69349070  0.09469697    -0.36020
N395        N  0.50699497  0.70577690  0.07529306    -0.28200
C396        C  0.52356060  0.68681285  0.06310234    -0.03440
C397        C  0.51928933  0.66148111  0.07589026     0.05170
C398        C  0.49922879  0.66689211  0.09585085     0.03260
H399        H  0.53599903  0.69081502  0.04490655     0.08370
H400        H  0.48867214  0.65183870  0.10860807     0.07200
N401        N  0.48609913  0.28714809  0.93496215    -0.27190
N402        N  0.46920578  0.29863440  0.91724041    -0.35050
C403        C  0.47281006  0.32595147  0.91714527     0.01150
C404        C  0.49303418  0.33214096  0.93559907     0.07180
C405        C  0.50085261  0.30719567  0.94692888    -0.05920
H406        H  0.46063589  0.34035293  0.90545648     0.07840
H407        H  0.51540481  0.30399177  0.96325050     0.09040
Cu408      Cu  0.44024658  0.27784104  0.89536820     0.44170
Cu409      Cu  0.48648547  0.24481856  0.94227590     0.41990
Cu410      Cu  0.44068047  0.20504305  0.89707226     0.43880
N411        N  0.41430155  0.25460743  0.87221788    -0.34570
N412        N  0.41529940  0.22748370  0.87132259    -0.28830
C413        C  0.39712580  0.21859517  0.85269084    -0.04930
C414        C  0.38393956  0.24137835  0.84191113     0.07290
C415        C  0.39523872  0.26380660  0.85479352     0.01080
H416        H  0.39349461  0.19723559  0.84770743     0.08730
H417        H  0.39054121  0.28527735  0.85124750     0.07810
N418        N  0.46496545  0.18813120  0.92766114    -0.36020
N419        N  0.48134383  0.20218679  0.94404420    -0.28200
C420        C  0.49351055  0.18450906  0.96148936    -0.03440
C421        C  0.48431052  0.15825306  0.95573206     0.05170
C422        C  0.46625567  0.16130623  0.93430360     0.03260
H423        H  0.50805274  0.19031253  0.97707346     0.08370
H424        H  0.45496264  0.14515837  0.92416160     0.07200
N425        N  0.47785752  0.93739902  0.79417623    -0.27190
N426        N  0.46425009  0.91674632  0.80573160    -0.35050
C427        C  0.46468267  0.91955058  0.83320050     0.01150
C428        C  0.47878925  0.94342825  0.83919169     0.07180
C429        C  0.48727100  0.95395898  0.81401589    -0.05920
H430        H  0.45589423  0.90488548  0.84757134     0.07840
H431        H  0.49945647  0.97227683  0.81040617     0.09040
Cu432      Cu  0.44383194  0.88682556  0.78398172     0.44170
Cu433      Cu  0.48301319  0.94211749  0.75210863     0.41990
Cu434      Cu  0.43664778  0.90041712  0.71201443     0.43880
N435        N  0.41725542  0.86547731  0.75916540    -0.34570
N436        N  0.41339000  0.87153473  0.73301064    -0.28830
C437        C  0.39306687  0.85569748  0.72328840    -0.04930
C438        C  0.38393144  0.83880209  0.74439558     0.07290
C439        C  0.39971602  0.84544677  0.76680197     0.01080
H440        H  0.38560921  0.85641338  0.70244852     0.08730
H441        H  0.39801629  0.83701415  0.78736810     0.07810
N442        N  0.46691036  0.92532104  0.69520110    -0.36020
N443        N  0.48417608  0.94035194  0.70960099    -0.28200
C444        C  0.50225816  0.95259839  0.69224110    -0.03440
C445        C  0.49624846  0.94435113  0.66583159     0.05170
C446        C  0.47349259  0.92751938  0.66840171     0.03260
H447        H  0.51875433  0.96608668  0.69840901     0.08370
H448        H  0.46249464  0.91753349  0.65202250     0.07200
O449        O  0.53296663  0.96020853  0.01962916    -0.72840
O450        O  0.52242657  0.03924344  0.01202792    -0.73820
O451        O  0.52583907  0.02596188  0.03478687    -0.62440
O452        O  0.53452439  0.99094982  0.95578896    -0.70850
O453        O  0.49004102  0.98232574  0.96383940    -0.70410
O454        O  0.48604650  0.00410224  0.04110444    -0.61660
O455        O  0.48470813  0.03273174  0.98837478    -0.74170
O456        O  0.48824333  0.95685004  0.01305433    -0.72950
Cu457      Cu  0.55838376  0.00143407  0.00505222     1.04560
Cu458      Cu  0.48770695  0.99417451  0.00169107     1.04330
C459        C  0.51045106  0.94639680  0.02054421     0.93360
C460        C  0.50300974  0.04894827  0.99648006     0.92490
C461        C  0.50552539  0.01745223  0.05157248     0.84640
C462        C  0.51052404  0.98286729  0.94739123     0.90910
N463        N  0.74561694  0.92116833  0.54824734    -0.27190
N464        N  0.73282546  0.91159887  0.57047754    -0.35050
C465        C  0.70551590  0.91169206  0.56626333     0.01150
C466        C  0.70079464  0.92112139  0.53981515     0.07180
C467        C  0.72679195  0.92721364  0.52920179    -0.05920
H468        H  0.69032526  0.90590394  0.58166996     0.07840
H469        H  0.73168299  0.93591542  0.50921750     0.09040
Cu470      Cu  0.75276470  0.89678978  0.60487577     0.44170
Cu471      Cu  0.78787649  0.92687946  0.54484543     0.41990
Cu472      Cu  0.82611803  0.89054255  0.59634081     0.43880
N473        N  0.77707471  0.87435950  0.63148013    -0.34570
N474        N  0.80383845  0.87080169  0.62740920    -0.28830
C475        C  0.81316332  0.85264261  0.64599568    -0.04930
C476        C  0.79123474  0.84458146  0.66267776     0.07290
C477        C  0.76869506  0.85883235  0.65298073     0.01080
H478        H  0.83425802  0.84554686  0.64701563     0.08730
H479        H  0.74753910  0.85699825  0.66009931     0.07810
N480        N  0.84419931  0.91561906  0.56650475    -0.36020
N481        N  0.83033119  0.92958275  0.54792908    -0.28200
C482        C  0.84786307  0.94614271  0.53388333    -0.03440
C483        C  0.87411247  0.94210982  0.54396236     0.05170
C484        C  0.87086520  0.92272505  0.56466956     0.03260
H485        H  0.84156470  0.96115481  0.51881829     0.08370
H486        H  0.88660939  0.91533925  0.57836125     0.07200
N487        N  0.99237050  0.29036496  0.55835746    -0.27190
N488        N  0.97537604  0.30272906  0.57597719    -0.35050
C489        C  0.97446079  0.32970843  0.57068625     0.01150
C490        C  0.99153007  0.33510905  0.54861731     0.07180
C491        C  0.00294691  0.30983190  0.54124565    -0.05920
H492        H  0.96215945  0.34441578  0.58221039     0.07840
H493        H  0.01784992  0.30595128  0.52493610     0.09040
Cu494      Cu  0.95197120  0.28452277  0.60611008     0.44170
Cu495      Cu  0.99915691  0.24732820  0.55946354     0.41990
Cu496      Cu  0.94440136  0.21446999  0.60106893     0.43880
N497        N  0.92243593  0.26419816  0.62844387    -0.34570
N498        N  0.91834546  0.23763742  0.62515259    -0.28830
C499        C  0.89701818  0.22966405  0.64111841    -0.04930
C500        C  0.88752717  0.25250155  0.65521974     0.07290
C501        C  0.90405234  0.27409014  0.64679035     0.01080
H502        H  0.88958990  0.20874948  0.64291636     0.08730
H503        H  0.90271639  0.29534714  0.65325212     0.07810
N504        N  0.97711757  0.19387288  0.58357448    -0.36020
N505        N  0.99737685  0.20472091  0.56857737    -0.28200
C506        C  0.01450255  0.18405879  0.56071467    -0.03440
C507        C  0.00449965  0.15948223  0.57176797     0.05170
C508        C  0.98074503  0.16666258  0.58579712     0.03260
H509        H  0.03215462  0.18650658  0.54706162     0.08370
H510        H  0.96645561  0.15286569  0.59612331     0.07200
N511        N  0.09515574  0.70483131  0.55976371    -0.27190
N512        N  0.11121145  0.69334898  0.57823606    -0.35050
C513        C  0.10910462  0.66592100  0.57666768     0.01150
C514        C  0.09084888  0.65935080  0.55618789     0.07180
C515        C  0.08203784  0.68468929  0.54614384    -0.05920
H516        H  0.12080647  0.65169839  0.58903621     0.07840
H517        H  0.06735447  0.68850816  0.53019579     0.09040
Cu518      Cu  0.13679817  0.71424379  0.60417053     0.44170
Cu519      Cu  0.09428338  0.74735074  0.55261191     0.41990
Cu520      Cu  0.14621656  0.78500523  0.59177833     0.43880
N521        N  0.16396156  0.73763064  0.62607341    -0.34570
N522        N  0.16830662  0.76392281  0.62082878    -0.28830
C523        C  0.18812394  0.77328786  0.63736221    -0.04930
C524        C  0.19632650  0.75174985  0.65390813     0.07290
C525        C  0.18058023  0.72947701  0.64630707     0.01080
H526        H  0.19575005  0.79419432  0.63747191     0.08730
H527        H  0.18148340  0.70876865  0.65444307     0.07810
N528        N  0.12065243  0.80271797  0.56333179    -0.36020
N529        N  0.10158425  0.78972505  0.54920071    -0.28200
C530        C  0.08793169  0.80843801  0.53406632    -0.03440
C531        C  0.09940381  0.83417263  0.53857992     0.05170
C532        C  0.11962741  0.82970052  0.55767719     0.03260
H533        H  0.07029743  0.80387006  0.52154015     0.08370
H534        H  0.13152549  0.84511371  0.56822138     0.07200
O535        O  0.04461580  0.04013463  0.52242921    -0.72840
O536        O  0.05828697  0.95962131  0.50571476    -0.73820
O537        O  0.99395011  0.99551515  0.50819601    -0.62440
O538        O  0.07034921  0.02785753  0.51702163    -0.70850
O539        O  0.07657027  0.00245047  0.55495300    -0.70410
O540        O  0.99935926  0.97791920  0.55017941    -0.61660
O541        O  0.05022616  0.95318830  0.54993975    -0.74170
O542        O  0.02314055  0.02696485  0.56074019    -0.72950
Cu543      Cu  0.04409603  0.00255024  0.48393635     1.04560
Cu544      Cu  0.03751807  0.99007581  0.55352726     1.04330
C545        C  0.02989978  0.04593069  0.54453595     0.93360
C546        C  0.05854003  0.94430135  0.52714669     0.92490
C547        C  0.98388418  0.98486220  0.53058716     0.84640
C548        C  0.08650935  0.01871135  0.53686478     0.90910
N549        N  0.60155035  0.06764899  0.79349022    -0.27190
N550        N  0.61272775  0.09061699  0.80259767    -0.35050
C551        C  0.61098088  0.09146437  0.83011744     0.01150
C552        C  0.59858785  0.06761933  0.83921567     0.07180
C553        C  0.59234974  0.05310589  0.81546634    -0.05920
H554        H  0.61855363  0.10822510  0.84242321     0.07840
H555        H  0.58261851  0.03313149  0.81436432     0.09040
Cu556      Cu  0.63468364  0.11788430  0.77898981     0.44170
Cu557      Cu  0.60162444  0.05759200  0.75135974     0.41990
Cu558      Cu  0.65890024  0.09233030  0.71559486     0.43880
N559        N  0.66671501  0.13554615  0.75773060    -0.34570
N560        N  0.67683585  0.12530149  0.73458631    -0.28830
C561        C  0.69846897  0.14054831  0.72624794    -0.04930
C562        C  0.70196878  0.16124066  0.74532370     0.07290
C563        C  0.68157465  0.15747215  0.76501889     0.01080
H564        H  0.71047378  0.13697146  0.70764724     0.08730
H565        H  0.67791632  0.16950393  0.78341772     0.07810
N566        N  0.63048271  0.06796092  0.69652471    -0.36020
N567        N  0.60884873  0.05612907  0.70853085    -0.28200
C568        C  0.59274115  0.04572619  0.68865216    -0.03440
C569        C  0.60503068  0.05154929  0.66330439     0.05170
C570        C  0.62886260  0.06541910  0.66915918     0.03260
H571        H  0.57306467  0.03580827  0.69227314     0.08370
H572        H  0.64321555  0.07449504  0.65450536     0.07200
N573        N  0.48969859  0.06216128  0.29073076    -0.27190
N574        N  0.46814071  0.07237169  0.30411326    -0.35050
C575        C  0.47214846  0.06960112  0.33118488     0.01150
C576        C  0.49787141  0.05771538  0.33561190     0.07180
C577        C  0.50816168  0.05311368  0.30905316    -0.05920
H578        H  0.45757529  0.07683751  0.34660631     0.07840
H579        H  0.52790266  0.04510791  0.30276699     0.09040
Cu580      Cu  0.43641736  0.09472631  0.28633984     0.44170
Cu581      Cu  0.49424568  0.06274649  0.24816564     0.41990
Cu582      Cu  0.44862117  0.11044353  0.21566908     0.43880
N583        N  0.41318531  0.12336537  0.26485743    -0.34570
N584        N  0.41874292  0.12955670  0.23889910    -0.28830
C585        C  0.40213944  0.14993664  0.23072926    -0.04930
C586        C  0.38517597  0.15701034  0.25259159     0.07290
C587        C  0.39258289  0.13974500  0.27396795     0.01080
H588        H  0.40259031  0.15901332  0.21039288     0.08730
H589        H  0.38424267  0.13965735  0.29474030     0.07810
N590        N  0.47600010  0.08620083  0.19430710    -0.36020
N591        N  0.49247938  0.06802783  0.20583473    -0.28200
C592        C  0.50512982  0.05336059  0.18584717    -0.03440
C593        C  0.49632301  0.06324308  0.16076975     0.05170
C594        C  0.47770719  0.08377853  0.16688068     0.03260
H595        H  0.51850212  0.03593686  0.18932777     0.08370
H596        H  0.46504205  0.09495258  0.15254056     0.07200
N597        N  0.32857182  0.05514639  0.55491466    -0.27190
N598        N  0.34232504  0.06897195  0.57369269    -0.35050
C599        C  0.36944080  0.06459752  0.57003895     0.01150
C600        C  0.37317478  0.04732059  0.54787324     0.07180
C601        C  0.34689434  0.04156018  0.53869733    -0.05920
H602        H  0.38535771  0.07380549  0.58233017     0.07840
H603        H  0.34153732  0.02874950  0.52141869     0.09040
Cu604      Cu  0.32494677  0.09492176  0.60277035     0.44170
Cu605      Cu  0.28545678  0.05643898  0.55229388     0.41790
Cu606      Cu  0.25321371  0.10764951  0.59695374     0.43880
N607        N  0.30422359  0.12357740  0.62662104    -0.34570
N608        N  0.27779387  0.12897661  0.62350181    -0.28830
C609        C  0.27026315  0.14938422  0.64058223    -0.04930
C610        C  0.29305952  0.15699862  0.65533448     0.07290
C611        C  0.31426975  0.14021957  0.64610427     0.01080
H612        H  0.24964142  0.15773665  0.64236532     0.08730
H613        H  0.33546223  0.14039048  0.65267122     0.07810
N614        N  0.23152047  0.08222707  0.57144093    -0.36020
N615        N  0.24279269  0.06330477  0.55530933    -0.28200
C616        C  0.22240842  0.04953392  0.54285961    -0.03440
C617        C  0.19727472  0.06067203  0.55125511     0.05170
C618        C  0.20395879  0.08104043  0.56970081     0.03260
H619        H  0.22570627  0.03235897  0.52921817     0.08370
H620        H  0.18984383  0.09322989  0.58207940     0.07200
O621        O  0.57497255  0.01730164  0.53289950    -0.72840
O622        O  0.54097574  0.01513501  0.45552999    -0.73820
O623        O  0.58479217  0.02329072  0.50679450    -0.62440
O624        O  0.50261157  0.00584118  0.51863052    -0.70850
O625        O  0.49804989  0.05061870  0.51934356    -0.70410
O626        O  0.57208645  0.06400202  0.49095352    -0.61660
O627        O  0.52343488  0.05577794  0.46774435    -0.74170
O628        O  0.54939193  0.05382910  0.54443261    -0.72950
Cu629      Cu  0.54758413  0.98678114  0.50510863     1.04560
Cu630      Cu  0.53561916  0.05553681  0.50603700     1.04330
C631        C  0.56739433  0.03606126  0.55137413     0.93360
C632        C  0.53050963  0.03880504  0.44909959     0.92490
C633        C  0.59059856  0.04642433  0.49409324     0.84640
C634        C  0.48741870  0.02713758  0.52188035     0.90910
N635        N  0.25122678  0.94107877  0.44512898    -0.27190
N636        N  0.23882111  0.93079994  0.42350163    -0.35050
C637        C  0.21223613  0.93781685  0.42475400     0.01150
C638        C  0.20711144  0.95261535  0.44875408     0.07180
C639        C  0.23258446  0.95430293  0.46119436    -0.05920
H640        H  0.19736988  0.93153635  0.40965923     0.07840
H641        H  0.23735369  0.96338327  0.48076846     0.09040
Cu642      Cu  0.25659760  0.90452969  0.39461669     0.44170
Cu643      Cu  0.29298709  0.93734701  0.45014158     0.41990
Cu644      Cu  0.32884554  0.90179473  0.39266760     0.43880
N645        N  0.27803708  0.87803148  0.36854185    -0.34570
N646        N  0.30521551  0.87808808  0.36701805    -0.28830
C647        C  0.31368253  0.85960900  0.34816707    -0.04930
C648        C  0.29067150  0.84694237  0.33763853     0.07290
C649        C  0.26837081  0.85899544  0.35106836     0.01080
H650        H  0.33501753  0.85516277  0.34311576     0.08730
H651        H  0.24678986  0.85446276  0.34819073     0.07810
N652        N  0.34774364  0.92459536  0.42272921    -0.36020
N653        N  0.33493353  0.93682926  0.44361498    -0.28200
C654        C  0.35353382  0.94987682  0.45896812    -0.03440
C655        C  0.37916411  0.94534548  0.44728040     0.05170
C656        C  0.37487214  0.92946245  0.42431745     0.03260
H657        H  0.34862973  0.96208503  0.47697678     0.08370
H658        H  0.39030993  0.92183426  0.40994168     0.07200
N659        N  0.96776944  0.79296992  0.45681564    -0.27190
N660        N  0.94793323  0.80453365  0.44247886    -0.35050
C661        C  0.94796039  0.83176462  0.44703132     0.01150
C662        C  0.96864796  0.83769546  0.46522480     0.07180
C663        C  0.98105984  0.81267729  0.47071427    -0.05920
H664        H  0.93561572  0.84644813  0.43587609     0.07840
H665        H  0.99961947  0.80935671  0.48230468     0.09040
Cu666      Cu  0.92503807  0.78435597  0.41335277     0.44170
Cu667      Cu  0.97760789  0.75146680  0.45473619     0.41990
Cu668      Cu  0.93869430  0.71329738  0.40370690     0.43880
N669        N  0.90761014  0.76167289  0.38230780    -0.34570
N670        N  0.91322964  0.73542650  0.37803881    -0.28830
C671        C  0.89908133  0.72663833  0.35614629    -0.04930
C672        C  0.88367874  0.74846754  0.34644963     0.07290
C673        C  0.88958897  0.77032254  0.36349820     0.01080
H674        H  0.89942411  0.70579320  0.34838034     0.08730
H675        H  0.88135776  0.79098085  0.36241462     0.07810
N676        N  0.96373062  0.69545787  0.43289139    -0.36020
N677        N  0.97878344  0.70899999  0.45076397    -0.28200
C678        C  0.99329831  0.69080146  0.46567543    -0.03440
C679        C  0.98657935  0.66443921  0.45712651     0.05170
C680        C  0.96786450  0.66842639  0.43624820     0.03260
H681        H  0.00815758  0.69666166  0.48082552     0.08370
H682        H  0.95811654  0.65270568  0.42404799     0.07200
N683        N  0.74664625  0.06671293  0.44629612    -0.27190
N684        N  0.73613297  0.08377751  0.42800457    -0.35050
C685        C  0.70864719  0.08462425  0.43097574     0.01150
C686        C  0.70090050  0.06681725  0.45172748     0.07180
C687        C  0.72554532  0.05603048  0.46139215    -0.05920
H688        H  0.69543922  0.09815051  0.41943264     0.07840
H689        H  0.72788984  0.04166331  0.47821535     0.09040
Cu690      Cu  0.75814563  0.10724811  0.40027504     0.44170
Cu691      Cu  0.78967482  0.06083184  0.44974750     0.41990
Cu692      Cu  0.82727004  0.11676070  0.41394662     0.43880
N693        N  0.78192034  0.13463433  0.37826643    -0.34570
N694        N  0.80775686  0.13958030  0.38454922    -0.28830
C695        C  0.81808171  0.15878847  0.36736471    -0.04930
C696        C  0.79759899  0.16595764  0.34930275     0.07290
C697        C  0.77496360  0.15026180  0.35671273     0.01080
H698        H  0.83911605  0.16613937  0.36737373     0.08730
H699        H  0.75495040  0.15020493  0.34723040     0.07810
N700        N  0.84564205  0.08545435  0.43528985    -0.36020
N701        N  0.83312239  0.06440324  0.44743372    -0.28200
C702        C  0.85274620  0.04690971  0.45643020    -0.03440
C703        C  0.87857147  0.05785697  0.44972062     0.05170
C704        C  0.87298454  0.08208903  0.43624247     0.03260
H705        H  0.84841370  0.02726824  0.46597806     0.08370
H706        H  0.88783846  0.09607495  0.42705120     0.07200
N707        N  0.09855479  0.28817370  0.44459464    -0.27190
N708        N  0.11573980  0.30358238  0.42987025    -0.35050
C709        C  0.11328299  0.32988568  0.43789824     0.01150
C710        C  0.09345860  0.33138578  0.45855042     0.07180
C711        C  0.08464479  0.30447493  0.46249083    -0.05920
H712        H  0.12543769  0.34671282  0.42962093     0.07840
H713        H  0.07006948  0.29707572  0.47782866     0.09040
Cu714      Cu  0.14380397  0.28843953  0.40120737     0.44170
Cu715      Cu  0.09653501  0.24544448  0.44012038     0.41990
Cu716      Cu  0.15766915  0.21601378  0.40890895     0.43880
N717        N  0.17420641  0.26784503  0.37919296    -0.34570
N718        N  0.18042811  0.24178837  0.38382294    -0.28830
C719        C  0.20096687  0.23414684  0.36673203    -0.04930
C720        C  0.20779780  0.25634886  0.35032811     0.07290
C721        C  0.19047563  0.27744381  0.35865632     0.01080
H722        H  0.20925496  0.21351406  0.36537689     0.08730
H723        H  0.18956738  0.29806986  0.35031165     0.07810
N724        N  0.12480975  0.19264887  0.42249242    -0.36020
N725        N  0.10172627  0.20342251  0.43237553    -0.28200
C726        C  0.08365020  0.18295732  0.43704924    -0.03440
C727        C  0.09587250  0.15798605  0.42981733     0.05170
C728        C  0.12221173  0.16513814  0.42097193     0.03260
H729        H  0.06319153  0.18595827  0.44569675     0.08370
H730        H  0.13877963  0.15163380  0.41474670     0.07200
O731        O  0.08338196  0.99325973  0.49064736    -0.72840
O732        O  0.00793447  0.02989140  0.48273978    -0.73820
O733        O  0.01606867  0.96101283  0.49041608    -0.62440
O734        O  0.03381276  0.04278045  0.47992091    -0.70850
O735        O  0.05503700  0.03072449  0.44142582    -0.70410
O736        O  0.02654364  0.95585611  0.44657615    -0.61660
O737        O  0.00168313  0.00588404  0.44399695    -0.74170
O738        O  0.07761332  0.98095182  0.44716621    -0.72950
Cu739      Cu  0.03344580  0.00095306  0.51483465     1.04560
Cu740      Cu  0.04003547  0.99325656  0.44515919     1.04330
C741        C  0.09299296  0.98360411  0.46755024     0.93360
C742        C  0.99219136  0.02235984  0.46188868     0.92490
C743        C  0.01584258  0.94663677  0.46840679     0.84640
C744        C  0.04930892  0.04946122  0.45845876     0.90910
N745        N  0.79120133  0.20630521  0.28720878    -0.27190
N746        N  0.81166747  0.21951563  0.29893304    -0.35050
C747        C  0.81758309  0.20694227  0.32278941     0.01150
C748        C  0.79955194  0.18516535  0.32621759     0.07180
C749        C  0.78309962  0.18538179  0.30339188    -0.05920
H750        H  0.83332694  0.21355054  0.33682008     0.07840
H751        H  0.76657444  0.17129694  0.29873618     0.09040
Cu752      Cu  0.82915614  0.25464308  0.28217730     0.44170
Cu753      Cu  0.77506664  0.21693629  0.24993540     0.41990
Cu754      Cu  0.80156178  0.27816814  0.21678018     0.43880
N755        N  0.84405974  0.28824231  0.26043632    -0.34570
N756        N  0.83525480  0.29611024  0.23602658    -0.28830
C757        C  0.85112628  0.31710726  0.22692483    -0.04930
C758        C  0.87032897  0.32291714  0.24685524     0.07290
C759        C  0.86514570  0.30435704  0.26780228     0.01080
H760        H  0.84866259  0.32754686  0.20744828     0.08730
H761        H  0.87644787  0.30212558  0.28667983     0.07810
N762        N  0.76785591  0.25577844  0.20278109    -0.36020
N763        N  0.75929423  0.23258496  0.21429036    -0.28200
C764        C  0.73745105  0.22292290  0.20069343    -0.03440
C765        C  0.73163897  0.24115205  0.17986216     0.05170
C766        C  0.75117497  0.26181680  0.18177831     0.03260
H767        H  0.72582418  0.20477961  0.20649790     0.08370
H768        H  0.75292195  0.28004426  0.16906770     0.07200
N769        N  0.75580840  0.78929894  0.23539563    -0.27190
N770        N  0.76457806  0.79863271  0.25919501    -0.35050
C771        C  0.74913845  0.82037234  0.26675678     0.01150
C772        C  0.73009272  0.82505083  0.24645245     0.07180
C773        C  0.73491636  0.80510283  0.22681527    -0.05920
H774        H  0.75148396  0.83175132  0.28568133     0.07840
H775        H  0.72331209  0.80151318  0.20835093     0.09040
Cu776      Cu  0.79691876  0.78096636  0.27998011     0.44170
Cu777      Cu  0.77045079  0.75368503  0.21773489     0.41990
Cu778      Cu  0.82529598  0.71714771  0.25266274     0.43880
N779        N  0.83000806  0.76040097  0.29664768    -0.34570
N780        N  0.84012317  0.73688583  0.28725403    -0.28830
C781        C  0.86087675  0.72886021  0.30348835    -0.04930
C782        C  0.86402655  0.74846038  0.32380006     0.07290
C783        C  0.84420715  0.76814979  0.31879031     0.01080
H784        H  0.87281331  0.71024533  0.30062613     0.08730
H785        H  0.84004243  0.78655985  0.33062677     0.07810
N786        N  0.80544904  0.70250441  0.21812240    -0.36020
N787        N  0.78515246  0.71573269  0.20597897    -0.28200
C788        C  0.77587391  0.70051663  0.18508398    -0.03440
C789        C  0.79124463  0.67668795  0.18379036     0.05170
C790        C  0.80990209  0.67857222  0.20491598     0.03260
H791        H  0.75936277  0.70657490  0.17166257     0.08370
H792        H  0.82534386  0.66358253  0.21047385     0.07200
N793        N  0.33043299  0.73627770  0.20585696    -0.27190
N794        N  0.34020789  0.75965698  0.21553510    -0.35050
C795        C  0.36318036  0.76639972  0.20127052     0.01150
C796        C  0.36842436  0.74599518  0.18211726     0.07180
C797        C  0.34734938  0.72713197  0.18560858    -0.05920
H798        H  0.37543085  0.78458099  0.20490746     0.07840
H799        H  0.34415603  0.70853969  0.17388561     0.09040
Cu800      Cu  0.32275207  0.78061341  0.24863890     0.44170
Cu801      Cu  0.29382885  0.71898905  0.22003954     0.41990
Cu802      Cu  0.26077600  0.75213223  0.27940156     0.43880
N803        N  0.30252586  0.79772847  0.28242610    -0.34570
N804        N  0.27924165  0.78801400  0.29307410    -0.28830
C805        C  0.27102463  0.80435341  0.31400418    -0.04930
C806        C  0.29036741  0.82498332  0.31689968     0.07290
C807        C  0.31009030  0.82009307  0.29666802     0.01080
H808        H  0.25276380  0.80101188  0.32662659     0.08730
H809        H  0.32847506  0.83204432  0.29243377     0.07810
N810        N  0.24625249  0.71662816  0.26087509    -0.36020
N811        N  0.25737333  0.70562049  0.23841899    -0.28200
C812        C  0.24187151  0.68420323  0.23054534    -0.03440
C813        C  0.22038802  0.68125454  0.24927413     0.05170
C814        C  0.22381204  0.70199095  0.26831235     0.03260
H815        H  0.24624177  0.67141233  0.21281038     0.08370
H816        H  0.21056781  0.70657487  0.28583054     0.07200
N817        N  0.27249810  0.70833272  0.78216898    -0.27190
N818        N  0.29469550  0.71951585  0.79279391    -0.35050
C819        C  0.30062537  0.70661993  0.81633707     0.01150
C820        C  0.28105811  0.68648017  0.82082687     0.07180
C821        C  0.26345632  0.68805534  0.79883944    -0.05920
H822        H  0.31786695  0.71165867  0.82921842     0.07840
H823        H  0.24567337  0.67529374  0.79503846     0.09040
Cu824      Cu  0.31565565  0.75200977  0.77540127     0.44170
Cu825      Cu  0.25616733  0.72160658  0.74566128     0.41990
Cu826      Cu  0.28865723  0.78214765  0.71392780     0.43880
N827        N  0.33365418  0.78475957  0.75535565    -0.34570
N828        N  0.32425835  0.79566355  0.73242926    -0.28830
C829        C  0.34098526  0.81637803  0.72456592    -0.04930
C830        C  0.36160498  0.81861806  0.74373048     0.07290
C831        C  0.35632017  0.79833863  0.76295493     0.01080
H832        H  0.33800550  0.82915942  0.70661756     0.08730
H833        H  0.36804804  0.79371622  0.78112871     0.07810
N834        N  0.25341137  0.76332443  0.69973561    -0.36020
N835        N  0.24247453  0.74081783  0.71065319    -0.28200
C836        C  0.22060292  0.73328465  0.69593742    -0.03440
C837        C  0.21744096  0.75212334  0.67499971     0.05170
C838        C  0.23846088  0.77095795  0.67797117     0.03260
H839        H  0.20776007  0.71560651  0.70043817     0.08370
H840        H  0.24288281  0.78859648  0.66504106     0.07200
N841        N  0.25912175  0.29201094  0.76236552    -0.27190
N842        N  0.24843898  0.28186262  0.73970481    -0.35050
C843        C  0.22619105  0.29674790  0.73299591     0.01150
C844        C  0.22256641  0.31703387  0.75257213     0.07180
C845        C  0.24372653  0.31344446  0.77093113    -0.05920
H846        H  0.21355339  0.29295229  0.71527318     0.07840
H847        H  0.24792198  0.32573851  0.78890957     0.09040
Cu848      Cu  0.26416130  0.24798001  0.71930919     0.44170
Cu849      Cu  0.29436557  0.27650436  0.78016968     0.41990
Cu850      Cu  0.32438707  0.21588836  0.74815562     0.43880
N851        N  0.28336872  0.21380792  0.70269385    -0.34570
N852        N  0.30593625  0.20259621  0.71266558    -0.28830
C853        C  0.31330807  0.18099368  0.69697058    -0.04930
C854        C  0.29417881  0.17835860  0.67644047     0.07290
C855        C  0.27547278  0.19940275  0.68065743     0.01080
H856        H  0.33076017  0.16773425  0.70076997     0.08730
H857        H  0.25742989  0.20392098  0.66866989     0.07810
N858        N  0.33842218  0.23293603  0.78411544    -0.36020
N859        N  0.32830967  0.25576397  0.79507632    -0.28200
C860        C  0.34294432  0.26218383  0.81737802    -0.03440
C861        C  0.36280131  0.24213982  0.82080587     0.05170
C862        C  0.35935798  0.22386364  0.79947013     0.03260
H863        H  0.33920200  0.27995733  0.83028391     0.08370
H864        H  0.37161393  0.20577468  0.79495769     0.07200
N865        N  0.82866719  0.24231172  0.70044365    -0.27190
N866        N  0.83863292  0.26536917  0.71059932    -0.35050
C867        C  0.86089661  0.27291240  0.69570654     0.01150
C868        C  0.86516119  0.25337808  0.67552904     0.07180
C869        C  0.84448238  0.23424783  0.67907942    -0.05920
H870        H  0.87338381  0.29084047  0.69974513     0.07840
H871        H  0.84107870  0.21589526  0.66704657     0.09040
Cu872      Cu  0.82246637  0.28449769  0.74492505     0.44170
Cu873      Cu  0.79410487  0.22300135  0.71559585     0.41990
Cu874      Cu  0.76084196  0.25453110  0.77464152     0.43880
N875        N  0.80258842  0.29955811  0.77940164    -0.34570
N876        N  0.77963693  0.28906743  0.78995492    -0.28830
C877        C  0.77144540  0.30433227  0.81158950    -0.04930
C878        C  0.79035715  0.32522610  0.81477900     0.07290
C879        C  0.80985940  0.32158701  0.79415822     0.01080
H880        H  0.75316291  0.30044079  0.82401765     0.08730
H881        H  0.82771370  0.33427061  0.78980920     0.07810
N882        N  0.74690689  0.21943935  0.75580305    -0.36020
N883        N  0.75894086  0.20804108  0.73407518    -0.28200
C884        C  0.74474070  0.18560387  0.72681290    -0.03440
C885        C  0.72283716  0.18279607  0.74500046     0.05170
C886        C  0.72476505  0.20449984  0.76311898     0.03260
H887        H  0.75014328  0.17229961  0.70973671     0.08370
H888        H  0.71114464  0.20916837  0.78031991     0.07200
N889        N  0.82566800  0.70429675  0.76297022    -0.27190
N890        N  0.83719334  0.71639468  0.74130387    -0.35050
C891        C  0.86010725  0.70247332  0.73399855     0.01150
C892        C  0.86334868  0.68094895  0.75228909     0.07180
C893        C  0.84125179  0.68273598  0.77045186    -0.05920
H894        H  0.87352669  0.70778802  0.71681440     0.07840
H895        H  0.83641069  0.66896283  0.78735082     0.09040
Cu896      Cu  0.82170282  0.75177770  0.72335491     0.44170
Cu897      Cu  0.78861790  0.71683400  0.78036161     0.41990
Cu898      Cu  0.75921913  0.78016265  0.75404281     0.43880
N899        N  0.80264393  0.78721234  0.70935846    -0.34570
N900        N  0.77943309  0.79720759  0.71993370    -0.28830
C901        C  0.77183089  0.81929195  0.70508850    -0.04930
C902        C  0.79141504  0.82354685  0.68449549     0.07290
C903        C  0.81067186  0.80290644  0.68787978     0.01080
H904        H  0.75341244  0.83131688  0.70898603     0.08730
H905        H  0.82877812  0.79906106  0.67518255     0.07810
N906        N  0.74255897  0.75792870  0.78700811    -0.36020
N907        N  0.75245964  0.73403130  0.79539389    -0.28200
C908        C  0.73663916  0.72443038  0.81624774    -0.03440
C909        C  0.71614077  0.74344653  0.82161338     0.05170
C910        C  0.72055184  0.76451666  0.80287758     0.03260
H911        H  0.74057885  0.70564967  0.82750090     0.08370
H912        H  0.70866724  0.78324484  0.80093953     0.07200
N913        N  0.27954134  0.29179688  0.21342680    -0.27190
N914        N  0.30298295  0.28177031  0.20342049    -0.35050
C915        C  0.30976423  0.29540278  0.18021624     0.01150
C916        C  0.28933500  0.31446666  0.17523383     0.07180
C917        C  0.27044544  0.31161389  0.19654349    -0.05920
H918        H  0.32800419  0.29146108  0.16774118     0.07840
H919        H  0.25190683  0.32358418  0.19999850     0.09040
Cu920      Cu  0.32416273  0.24923768  0.22076317     0.44170
Cu921      Cu  0.26181746  0.27983722  0.25043775     0.41990
Cu922      Cu  0.29584457  0.22308125  0.28399741     0.43880
N923        N  0.33988282  0.21528368  0.24099677    -0.34570
N924        N  0.32965916  0.20592342  0.26455320    -0.28830
C925        C  0.34428390  0.18389887  0.27254522    -0.04930
C926        C  0.36452646  0.17905550  0.25287497     0.07290
C927        C  0.36115077  0.19927002  0.23313963     0.01080
H928        H  0.34019143  0.17211572  0.29105986     0.08730
H929        H  0.37326978  0.20220988  0.21449424     0.07810
N930        N  0.26216009  0.24344831  0.30023660    -0.36020
N931        N  0.24999733  0.26470227  0.28854625    -0.28200
C932        C  0.22911303  0.27329636  0.30493412    -0.03440
C933        C  0.22806511  0.25630549  0.32774556     0.05170
C934        C  0.24918706  0.23762149  0.32407690     0.03260
H935        H  0.21528068  0.29005026  0.30017481     0.08370
H936        H  0.25472345  0.22093144  0.33766685     0.07200
C937        C  0.06841640  0.12740849  0.45948320    -0.05680
C938        C  0.08411392  0.13008312  0.43541056     0.00250
C939        C  0.08723203  0.10678606  0.41809839    -0.08320
C940        C  0.07480744  0.08162844  0.42626163    -0.05700
C941        C  0.05941506  0.07847982  0.45115147     0.00230
C942        C  0.05615666  0.10251579  0.46764626    -0.08230
C943        C  0.04255683  0.10211564  0.49524667     0.62150
H944        H  0.06688423  0.14512657  0.47286890     0.12840
H945        H  0.07785904  0.06388827  0.41316908     0.12850
C946        C  0.10350049  0.10795125  0.39117252     0.62380
F947        F  0.03821397  0.12813835  0.50608610    -0.22790
F948        F  0.06001007  0.08829425  0.51237739    -0.20120
F949        F  0.01729158  0.08965264  0.49327554    -0.19790
F950        F  0.13137882  0.10766462  0.39646762    -0.19850
F951        F  0.09690275  0.13146982  0.37662932    -0.20170
F952        F  0.09789260  0.08558943  0.37458224    -0.22840
C953        C  0.92460130  0.04667499  0.43025793    -0.05680
C954        C  0.90677098  0.04657059  0.45334141     0.00250
C955        C  0.91732169  0.03926747  0.47927654    -0.08320
C956        C  0.94539693  0.03232081  0.48102484    -0.05700
C957        C  0.96348710  0.03280350  0.45825401     0.00230
C958        C  0.95270571  0.03966227  0.43207809    -0.08230
C959        C  0.97047539  0.03965959  0.40600496     0.62150
H960        H  0.91616507  0.05227271  0.41053138     0.12840
H961        H  0.95313915  0.02549939  0.50028115     0.12850
C962        C  0.89941883  0.03952638  0.50518805     0.62380
F963        F  0.95716493  0.05194689  0.38419719    -0.22790
F964        F  0.97665289  0.01291288  0.39843142    -0.20120
F965        F  0.99461573  0.05402286  0.41031165    -0.19790
F966        F  0.87950554  0.01936536  0.50364285    -0.19850
F967        F  0.88689556  0.06493662  0.50818608    -0.20170
F968        F  0.91456188  0.03453766  0.52855195    -0.22840
C969        C  0.00558993  0.87017276  0.45421852    -0.05680
C970        C  0.98112080  0.86498600  0.46863917     0.00250
C971        C  0.96879231  0.88588301  0.48474465    -0.08320
C972        C  0.98046084  0.91242097  0.48412075    -0.05700
C973        C  0.00444066  0.91815824  0.46861263     0.00230
C974        C  0.01781922  0.89620382  0.45438585    -0.08230
C975        C  0.04572537  0.89961960  0.44078411     0.62150
H976        H  0.01492257  0.85359087  0.44244456     0.12840
H977        H  0.97113011  0.92871669  0.49600666     0.12850
C978        C  0.94408277  0.87963096  0.50308327     0.62380
F979        F  0.05763066  0.87467579  0.43362067    -0.22790
F980        F  0.06283795  0.91240494  0.45920303    -0.20120
F981        F  0.04323675  0.91510546  0.41707531    -0.19790
F982        F  0.95027241  0.85790415  0.52033761    -0.19850
F983        F  0.92185618  0.87255686  0.48715480    -0.20170
F984        F  0.93675938  0.90191816  0.51927741    -0.22840
C985        C  0.14297684  0.99139825  0.47557319    -0.05680
C986        C  0.12233234  0.97477104  0.46411434     0.00250
C987        C  0.13085449  0.95046853  0.44948750    -0.08320
C988        C  0.15826894  0.94233407  0.45099917    -0.05700
C989        C  0.17898296  0.96021542  0.45894672     0.00230
C990        C  0.17138364  0.98538324  0.47170603    -0.08230
C991        C  0.19278531  0.00577014  0.48094505     0.62150
H992        H  0.13675271  0.01001389  0.48617462     0.12840
H993        H  0.16401745  0.92244603  0.44255129     0.12850
C994        C  0.11466469  0.93201293  0.43015907     0.62380
F995        F  0.18098289  0.03042162  0.48902983    -0.22790
F996        F  0.21123386  0.01138894  0.45969309    -0.20120
F997        F  0.20659117  0.99479890  0.50300885    -0.19790
F998        F  0.08904866  0.94111103  0.42331092    -0.19850
F999        F  0.11248496  0.90601397  0.44158261    -0.20170
F1000       F  0.12920103  0.92965886  0.40549245    -0.22840
C1001       C  0.62465786  0.04811351  0.45627041    -0.05680
C1002       C  0.61876088  0.05320028  0.48408614     0.00250
C1003       C  0.63930831  0.06483737  0.50086502    -0.08320
C1004       C  0.66603787  0.06863531  0.48963493    -0.05700
C1005       C  0.67234395  0.06212023  0.46211411     0.00230
C1006       C  0.65123392  0.05201836  0.44494014    -0.08230
C1007       C  0.65678816  0.04428184  0.41508540     0.62150
H1008       H  0.60831239  0.04010357  0.44364351     0.12840
H1009       H  0.68227335  0.07681278  0.50226287     0.12850
C1010       C  0.63314883  0.07283705  0.53045425     0.62380
F1011       F  0.63457843  0.03081243  0.40372657    -0.22790
F1012       F  0.67941648  0.02701732  0.41324764    -0.20120
F1013       F  0.66172285  0.06764001  0.39959628    -0.19790
F1014       F  0.62790742  0.04956318  0.54591774    -0.19850
F1015       F  0.61041966  0.09000195  0.53165174    -0.20170
F1016       F  0.65506299  0.08651785  0.54210509    -0.22840
C1017       C  0.41322600  0.01614061  0.54985256    -0.05680
C1018       C  0.40014830  0.03808644  0.53682990     0.00250
C1019       C  0.41430892  0.05280249  0.51603283    -0.08320
C1020       C  0.44222077  0.04667794  0.51086142    -0.05700
C1021       C  0.45650954  0.02606972  0.52542488     0.00230
C1022       C  0.44071976  0.00876695  0.54359197    -0.08230
C1023       C  0.45035830  0.98248727  0.55703444     0.62150
H1024       H  0.40170588  0.00457215  0.56529006     0.12840
H1025       H  0.45350106  0.05890405  0.49586295     0.12850
C1026       C  0.40017944  0.07554707  0.50013215     0.62380
F1027       F  0.45288532  0.98638630  0.58498271    -0.22790
F1028       F  0.47472989  0.97311300  0.54626838    -0.20120
F1029       F  0.43101491  0.96204977  0.55303783    -0.19790
F1030       F  0.39199101  0.09628655  0.51791243    -0.19850
F1031       F  0.37728250  0.06502936  0.48726411    -0.20170
F1032       F  0.41737460  0.08689560  0.48014332    -0.22840
C1033       C  0.50103348  0.07201220  0.38420935    -0.05680
C1034       C  0.51084466  0.05439600  0.36340663     0.00250
C1035       C  0.53115385  0.03455830  0.37050609    -0.08320
C1036       C  0.53695007  0.03020130  0.39863769    -0.05700
C1037       C  0.52496477  0.04626828  0.41967539     0.00230
C1038       C  0.50779162  0.06885824  0.41198562    -0.08230
C1039       C  0.49597340  0.08984431  0.43236726     0.62150
H1040       H  0.48773460  0.08880269  0.37847783     0.12840
H1041       H  0.55128112  0.01424182  0.40444216     0.12850
C1042       C  0.54761508  0.01874947  0.34904977     0.62380
F1043       F  0.48061502  0.11008746  0.41963703    -0.22790
F1044       F  0.51719578  0.10295064  0.44574049    -0.20120
F1045       F  0.47869801  0.07701861  0.45126421    -0.19790
F1046       F  0.56251289  0.03698351  0.33284702    -0.19850
F1047       F  0.53028089  0.00306504  0.33313462    -0.20170
F1048       F  0.56654843  0.00138857  0.36086053    -0.22840
C1049       C  0.60042261  0.02219318  0.62235467    -0.05680
C1050       C  0.59438387  0.04705292  0.63541864     0.00250
C1051       C  0.58102792  0.06809093  0.62083146    -0.08320
C1052       C  0.57444485  0.06353401  0.59321123    -0.05700
C1053       C  0.57930756  0.03813329  0.57973840     0.00230
C1054       C  0.59280262  0.01674595  0.59500716    -0.08230
C1055       C  0.60034978  0.98781768  0.58550914     0.62150
H1056       H  0.61127543  0.00657622  0.63393718     0.12840
H1057       H  0.56473792  0.08011030  0.58208188     0.12850
C1058       C  0.57320060  0.09507813  0.63464941     0.62380
F1059       F  0.62874298  0.98519277  0.58507592    -0.22790
F1060       F  0.59105802  0.98060657  0.56017259    -0.20120
F1061       F  0.58956744  0.96892906  0.60409780    -0.19790
F1062       F  0.59665267  0.10886341  0.64257975    -0.19850
F1063       F  0.55682013  0.08982773  0.65760949    -0.20170
F1064       F  0.55861556  0.11221147  0.61735115    -0.22840
C1065       C  0.12185202  0.05554768  0.53089528    -0.05680
C1066       C  0.11536110  0.02874964  0.53965720     0.00250
C1067       C  0.13677733  0.01172230  0.55004228    -0.08320
C1068       C  0.16329616  0.02291503  0.55299877    -0.05700
C1069       C  0.16923326  0.05015590  0.54574957     0.00230
C1070       C  0.14850636  0.06660513  0.53373652    -0.08230
C1071       C  0.15475829  0.09535750  0.52313129     0.62150
H1072       H  0.10576019  0.06800547  0.52216995     0.12840
H1073       H  0.17964031  0.01056334  0.56159562     0.12850
C1074       C  0.13221198  0.98160788  0.55735738     0.62380
F1075       F  0.13289914  0.10628085  0.50875940    -0.22790
F1076       F  0.17747235  0.09458492  0.50557483    -0.20120
F1077       F  0.16013724  0.11269212  0.54486889    -0.19790
F1078       F  0.11945387  0.96831020  0.53592879    -0.19850
F1079       F  0.11607664  0.97951874  0.58096892    -0.20170
F1080       F  0.15678070  0.96804114  0.56212647    -0.22840
C1081       C  0.06125738  0.86742586  0.53986331    -0.05680
C1082       C  0.08810848  0.86134232  0.53095141     0.00250
C1083       C  0.10419182  0.88191765  0.51761509    -0.08320
C1084       C  0.09300873  0.90851962  0.51462663    -0.05700
C1085       C  0.06704052  0.91515070  0.52578115     0.00230
C1086       C  0.05050127  0.89414038  0.53800901    -0.08230
C1087       C  0.02242038  0.89992658  0.55114491     0.62150
H1088       H  0.04942391  0.85147850  0.55022513     0.12840
H1089       H  0.10514914  0.92473748  0.50512825     0.12850
C1090       C  0.13312852  0.87589128  0.50698172     0.62380
F1091       F  0.00707065  0.87608706  0.55420820    -0.22790
F1092       F  0.00747685  0.91785421  0.53518723    -0.20120
F1093       F  0.02584724  0.91139044  0.57687226    -0.19790
F1094       F  0.13286282  0.85283393  0.49036260    -0.19850
F1095       F  0.15051868  0.87135966  0.52873042    -0.20170
F1096       F  0.14375356  0.89756230  0.49174354    -0.22840
C1097       C  0.99297062  0.11505818  0.55122343    -0.05680
C1098       C  0.01238333  0.13079448  0.56505860     0.00250
C1099       C  0.03623419  0.11778525  0.57527341    -0.08320
C1100       C  0.04165469  0.09010648  0.56788984    -0.05700
C1101       C  0.02264436  0.07466634  0.55274102     0.00230
C1102       C  0.99677302  0.08688695  0.54664437    -0.08230
C1103       C  0.97228687  0.07157913  0.53561753     0.62150
H1104       H  0.97385646  0.12468215  0.54501339     0.12840
H1105       H  0.06053734  0.08020900  0.57419269     0.12850
C1106       C  0.05456523  0.13256760  0.59533062     0.62380
F1107       F  0.94915183  0.07748838  0.55155027    -0.22790
F1108       F  0.97617081  0.04367121  0.53636023    -0.20120
F1109       F  0.96739690  0.07983169  0.50892113    -0.19790
F1110       F  0.03898295  0.14065502  0.61802146    -0.19850
F1111       F  0.06605254  0.15554526  0.58294705    -0.20170
F1112       F  0.07564506  0.11582331  0.60441185    -0.22840
C1113       C  0.91314857  0.96847796  0.56136547    -0.05680
C1114       C  0.89964196  0.95803616  0.53840477     0.00250
C1115       C  0.91239275  0.96013173  0.51205919    -0.08320
C1116       C  0.93928428  0.97103479  0.51009696    -0.05700
C1117       C  0.95388314  0.97895695  0.53355620     0.00230
C1118       C  0.94003337  0.97892649  0.55959584    -0.08230
C1119       C  0.95333925  0.98897000  0.58588672     0.62150
H1120       H  0.90281696  0.96709329  0.58124128     0.12840
H1121       H  0.94969230  0.97208849  0.49025690     0.12850
C1122       C  0.89848705  0.94955693  0.48640592     0.62380
F1123       F  0.93399833  0.99315427  0.60672392    -0.22790
F1124       F  0.96659528  0.01373331  0.58133455    -0.20120
F1125       F  0.97202267  0.96965105  0.59503726    -0.19790
F1126       F  0.87569049  0.96552566  0.48086527    -0.19850
F1127       F  0.89029212  0.92256220  0.49018373    -0.20170
F1128       F  0.91594568  0.95047712  0.46360812    -0.22840
C1129       C  0.52271489  0.04710284  0.08903403    -0.05680
C1130       C  0.50293135  0.02794134  0.08027830     0.00250
C1131       C  0.48135463  0.01982274  0.09897706    -0.08320
C1132       C  0.48086038  0.03112221  0.12554461    -0.05700
C1133       C  0.50023259  0.05054250  0.13365707     0.00230
C1134       C  0.52131624  0.05899556  0.11533388    -0.08230
C1135       C  0.54119197  0.08158086  0.12322987     0.62150
H1136       H  0.53886899  0.05352377  0.07482711     0.12840
H1137       H  0.46471077  0.02557227  0.14016204     0.12850
C1138       C  0.45839729  0.99998808  0.09138562     0.62380
F1139       F  0.56194801  0.08502616  0.10366034    -0.22790
F1140       F  0.55322671  0.07541278  0.14806665    -0.20120
F1141       F  0.52693324  0.10609131  0.12591856    -0.19790
F1142       F  0.46948671  0.97510399  0.08294442    -0.19850
F1143       F  0.44276026  0.01124260  0.07062906    -0.20170
F1144       F  0.44069307  0.99463668  0.11337561    -0.22840
C1145       C  0.51420285  0.95647463  0.87205151    -0.05680
C1146       C  0.48623740  0.95405055  0.86647629     0.00250
C1147       C  0.46651649  0.96190549  0.88658161    -0.08320
C1148       C  0.47583024  0.97303385  0.91143248    -0.05700
C1149       C  0.50413836  0.97418864  0.91821384     0.00230
C1150       C  0.52351674  0.96480443  0.89798460    -0.08230
C1151       C  0.55327942  0.96029566  0.90413545     0.62150
H1152       H  0.52875640  0.95000949  0.85620742     0.12840
H1153       H  0.46053016  0.97995417  0.92628572     0.12850
C1154       C  0.43580293  0.95833638  0.88207060     0.62380
F1155       F  0.56790190  0.94922736  0.88210047    -0.22790
F1156       F  0.55446017  0.94207193  0.92562048    -0.20120
F1157       F  0.56552031  0.98468887  0.91079144    -0.19790
F1158       F  0.42940513  0.93064815  0.88164695    -0.19850
F1159       F  0.42844755  0.97024021  0.85739917    -0.20170
F1160       F  0.42010364  0.97036492  0.90282239    -0.22840
C1161       C  0.51842171  0.08959798  0.96951760    -0.05680
C1162       C  0.50091058  0.07872711  0.99008790     0.00250
C1163       C  0.48015922  0.09566151  0.00189474    -0.08320
C1164       C  0.47613435  0.12225842  0.99102800    -0.05700
C1165       C  0.49221963  0.13207735  0.96888801     0.00230
C1166       C  0.51411585  0.11589952  0.95830251    -0.08230
C1167       C  0.53208773  0.12608441  0.93453315     0.62150
H1168       H  0.53478849  0.07697254  0.96124833     0.12840
H1169       H  0.45975019  0.13523749  0.99907353     0.12850
C1170       C  0.46261909  0.08567328  0.02597438     0.62380
F1171       F  0.55288658  0.10764051  0.92785152    -0.22790
F1172       F  0.54419431  0.15079216  0.94148356    -0.20120
F1173       F  0.51614039  0.12992412  0.91151107    -0.19790
F1174       F  0.47949899  0.07769572  0.04718025    -0.19850
F1175       F  0.44678189  0.06352436  0.01808023    -0.20170
F1176       F  0.44512543  0.10604564  0.03580535    -0.22840
C1177       C  0.49563858  0.86973824  0.02283684    -0.05680
C1178       C  0.50453619  0.86303305  0.04922181     0.00250
C1179       C  0.51718689  0.88331730  0.06562854    -0.08320
C1180       C  0.51939436  0.91035873  0.05541541    -0.05700
C1181       C  0.50971432  0.91731422  0.02932742     0.00230
C1182       C  0.49792324  0.89665772  0.01248186    -0.08230
C1183       C  0.48745756  0.90291813  0.98378504     0.62150
H1184       H  0.48593840  0.85384355  0.01077139     0.12840
H1185       H  0.52798412  0.92645212  0.06804125     0.12850
C1186       C  0.52887245  0.87611318  0.09346548     0.62380
F1187       F  0.48117910  0.87914400  0.96955689    -0.22790
F1188       F  0.50733958  0.91698893  0.96869524    -0.20120
F1189       F  0.46375775  0.91867331  0.98556943    -0.19790
F1190       F  0.54708758  0.85434704  0.09064145    -0.19850
F1191       F  0.50783427  0.86873968  0.11148202    -0.20170
F1192       F  0.54290565  0.89801463  0.10477133    -0.22840
C1193       C  0.60712880  0.04525821  0.91362456    -0.05680
C1194       C  0.57969224  0.03965302  0.92183698     0.00250
C1195       C  0.55824684  0.04614010  0.90280907    -0.08320
C1196       C  0.56579334  0.05473019  0.87607055    -0.05700
C1197       C  0.59311370  0.05941511  0.86811953     0.00230
C1198       C  0.61420233  0.05586035  0.88755049    -0.08230
C1199       C  0.64414339  0.06274619  0.88095003     0.62150
H1200       H  0.62343007  0.04107005  0.92793044     0.12840
H1201       H  0.54987004  0.05836858  0.86105803     0.12850
C1202       C  0.52724720  0.04451723  0.90749861     0.62380
F1203       F  0.66161132  0.05402476  0.90145768    -0.22790
F1204       F  0.64711236  0.09090548  0.87846642    -0.20120
F1205       F  0.65244218  0.05021459  0.85668362    -0.19790
F1206       F  0.51565640  0.06981573  0.90160145    -0.19850
F1207       F  0.51915881  0.03781166  0.93370266    -0.20170
F1208       F  0.51638846  0.02542909  0.88965595    -0.22840
C1209       C  0.59328449  0.94091020  0.11443509    -0.05680
C1210       C  0.59134291  0.96027978  0.13585611     0.00250
C1211       C  0.58482611  0.98800934  0.12920234    -0.08320
C1212       C  0.57841380  0.99468040  0.10172466    -0.05700
C1213       C  0.58124357  0.97537546  0.08050524     0.00230
C1214       C  0.58993733  0.94830950  0.08676725    -0.08230
C1215       C  0.59717429  0.92766785  0.06433480     0.62150
H1216       H  0.59887947  0.91994524  0.11938526     0.12840
H1217       H  0.57268999  0.01551559  0.09633871     0.12850
C1218       C  0.58667186  0.01103906  0.15006046     0.62380
F1219       F  0.60146134  0.90153252  0.07480476    -0.22790
F1220       F  0.62105825  0.93586074  0.05078044    -0.20120
F1221       F  0.57622588  0.92613910  0.04565566    -0.19790
F1222       F  0.58849907  0.03636597  0.13718524    -0.19850
F1223       F  0.61001873  0.00813793  0.16575448    -0.20170
F1224       F  0.56349025  0.01092600  0.16690975    -0.22840
C1225       C  0.60445434  0.88308146  0.94295690    -0.05680
C1226       C  0.59383535  0.86281144  0.96084760     0.00250
C1227       C  0.57765835  0.87139260  0.98388207    -0.08320
C1228       C  0.57060792  0.89946426  0.98636873    -0.05700
C1229       C  0.58207976  0.91961959  0.96902095     0.00230
C1230       C  0.60026790  0.91124452  0.94740293    -0.08230
C1231       C  0.61661402  0.93053881  0.92863036     0.62150
H1232       H  0.61705894  0.87708009  0.92540998     0.12840
H1233       H  0.55772866  0.90609493  0.00335708     0.12850
C1234       C  0.56977761  0.85209343  0.00722557     0.62380
F1235       F  0.64435732  0.92758780  0.93398960    -0.22790
F1236       F  0.60973655  0.95789287  0.93170111    -0.20120
F1237       F  0.61235728  0.92345924  0.90148255    -0.19790
F1238       F  0.59092118  0.83385818  0.01261813    -0.19850
F1239       F  0.54623486  0.83787977  0.00051568    -0.20170
F1240       F  0.56470305  0.86647598  0.03127670    -0.22840
C1241       C  0.61521054  0.12019939  0.02153432    -0.05680
C1242       C  0.59405142  0.13375333  0.03595655     0.00250
C1243       C  0.56783276  0.12111340  0.03828040    -0.08320
C1244       C  0.56378772  0.09492268  0.02626177    -0.05700
C1245       C  0.58531586  0.08076038  0.01262784     0.00230
C1246       C  0.61149403  0.09389907  0.00998814    -0.08230
C1247       C  0.63587498  0.08020716  0.99556584     0.62150
H1248       H  0.63520311  0.13005967  0.02031718     0.12840
H1249       H  0.54419983  0.08466977  0.02896683     0.12850
C1250       C  0.54472576  0.13483856  0.05451024     0.62380
F1251       F  0.65706689  0.09863607  0.99031689    -0.22790
F1252       F  0.62777261  0.06953525  0.97068305    -0.20120
F1253       F  0.64617093  0.05935612  0.01183223    -0.19790
F1254       F  0.53816836  0.15966581  0.04234159    -0.19850
F1255       F  0.55302668  0.13956913  0.08117096    -0.20170
F1256       F  0.52121509  0.11876109  0.05561719    -0.22840
C1257       C  0.52124679  0.40438391  0.93956339    -0.05680
C1258       C  0.50773328  0.41502997  0.96342967     0.00250
C1259       C  0.48915893  0.39678853  0.97801052    -0.08320
C1260       C  0.48568471  0.36981036  0.96829239    -0.05700
C1261       C  0.49969325  0.35996867  0.94511668     0.00230
C1262       C  0.51766568  0.37732753  0.93030537    -0.08230
C1263       C  0.53308453  0.36711679  0.90487260     0.62150
H1264       H  0.53554781  0.41739356  0.92823921     0.12840
H1265       H  0.47151905  0.35603535  0.97898043     0.12850
C1266       C  0.47231100  0.40297777  0.00361247     0.62380
F1267       F  0.55063409  0.38690443  0.89394930    -0.22790
F1268       F  0.51449764  0.35996365  0.88485696    -0.20120
F1269       F  0.54867678  0.34430345  0.91155916    -0.19790
F1270       F  0.44459651  0.40065732  0.99816756    -0.19850
F1271       F  0.47775011  0.42854618  0.01336227    -0.20170
F1272       F  0.47806646  0.38407254  0.02406927    -0.22840
C1273       C  0.53545426  0.59721998  0.96995307    -0.05680
C1274       C  0.55392844  0.57571797  0.96406642     0.00250
C1275       C  0.58148694  0.58221905  0.95625805    -0.08320
C1276       C  0.58917038  0.60983974  0.95359512    -0.05700
C1277       C  0.57027877  0.63148132  0.95687738     0.00230
C1278       C  0.54295318  0.62516508  0.96609967    -0.08230
C1279       C  0.52146062  0.64728680  0.97124848     0.62150
H1280       H  0.51470834  0.59186748  0.97649283     0.12840
H1281       H  0.61021664  0.61469590  0.94775687     0.12850
C1282       C  0.60307672  0.56022417  0.95070172     0.62380
F1283       F  0.49555128  0.63621035  0.97608754    -0.22790
F1284       F  0.51975646  0.66445406  0.94862337    -0.20120
F1285       F  0.52842033  0.66230729  0.99419803    -0.19790
F1286       F  0.59762444  0.54673723  0.92638547    -0.19850
F1287       F  0.60274755  0.54172431  0.97206318    -0.20170
F1288       F  0.62945104  0.57097225  0.94861589    -0.22840
C1289       C  0.41004283  0.55405097  0.96944547    -0.05680
C1290       C  0.40692096  0.56056035  0.94190563     0.00250
C1291       C  0.43017224  0.55916353  0.92400161    -0.08320
C1292       C  0.45532289  0.54906713  0.93439166    -0.05700
C1293       C  0.45825319  0.54025419  0.96196435     0.00230
C1294       C  0.43476608  0.54398194  0.97997629    -0.08230
C1295       C  0.43239667  0.53719550  0.01001265     0.62150
H1296       H  0.39224386  0.55622763  0.98311995     0.12840
H1297       H  0.47296500  0.54730646  0.92058086     0.12850
C1298       C  0.42841311  0.56745828  0.89397974     0.62380
F1299       F  0.41118987  0.51877647  0.01459685    -0.22790
F1300       F  0.42571764  0.56076583  0.02441814    -0.20120
F1301       F  0.45617516  0.52648753  0.01973831    -0.19790
F1302       F  0.42428715  0.59550866  0.89205892    -0.19850
F1303       F  0.40684110  0.55384325  0.88171579    -0.20170
F1304       F  0.45235673  0.56117352  0.87943167    -0.22840
C1305       C  0.64046153  0.48906866  0.97237266    -0.05680
C1306       C  0.61901353  0.47282898  0.96216346     0.00250
C1307       C  0.62560729  0.44759342  0.94921618    -0.08320
C1308       C  0.65332225  0.43953059  0.94732268    -0.05700
C1309       C  0.67519208  0.45667843  0.95539175     0.00230
C1310       C  0.66849882  0.48220648  0.96826182    -0.08230
C1311       C  0.69009586  0.50256858  0.97759453     0.62150
H1312       H  0.63514114  0.50748426  0.98358850     0.12840
H1313       H  0.65796700  0.41952571  0.93884579     0.12850
C1314       C  0.60358529  0.42880550  0.93780119     0.62380
F1315       F  0.67853900  0.52756706  0.98505432    -0.22790
F1316       F  0.70882312  0.50779231  0.95649472    -0.20120
F1317       F  0.70336908  0.49215990  0.00029611    -0.19790
F1318       F  0.59142682  0.44118397  0.91542601    -0.19850
F1319       F  0.58387030  0.42369127  0.95786274    -0.20170
F1320       F  0.61417284  0.40373661  0.92919347    -0.22840
C1321       C  0.12975763  0.52613728  0.95985567    -0.05680
C1322       C  0.12004977  0.54200356  0.98210815     0.00250
C1323       C  0.13877957  0.55953369  0.99583268    -0.08320
C1324       C  0.16609918  0.56158343  0.98564467    -0.05700
C1325       C  0.17505714  0.54709629  0.96222609     0.00230
C1326       C  0.15686411  0.52859052  0.94943007    -0.08230
C1327       C  0.16607166  0.51178738  0.92462824     0.62150
H1328       H  0.11560283  0.51238644  0.94996987     0.12840
H1329       H  0.18029647  0.57558200  0.99541851     0.12850
C1330       C  0.13155294  0.57638384  0.02114484     0.62380
F1331       F  0.14621462  0.49306413  0.91687072    -0.22790
F1332       F  0.18972358  0.49729348  0.93079810    -0.20120
F1333       F  0.17144063  0.52901959  0.90253918    -0.19790
F1334       F  0.14734057  0.56743652  0.04285598    -0.19850
F1335       F  0.10419749  0.57450590  0.02890079    -0.20170
F1336       F  0.13743181  0.60377914  0.01605782    -0.22840
C1337       C  0.08756828  0.54324135  0.08645437    -0.05680
C1338       C  0.06184660  0.54995119  0.07548911     0.00250
C1339       C  0.04223766  0.56295975  0.09368425    -0.08320
C1340       C  0.04940340  0.56838028  0.12124382    -0.05700
C1341       C  0.07499639  0.56099008  0.13171741     0.00230
C1342       C  0.09412627  0.54719214  0.11436152    -0.08230
C1343       C  0.12107362  0.53499905  0.12440430     0.62150
H1344       H  0.10345191  0.53579537  0.07281590     0.12840
H1345       H  0.03516542  0.57911261  0.13487794     0.12850
C1346       C  0.01363457  0.57119251  0.08462255     0.62380
F1347       F  0.11959819  0.50670949  0.12236210    -0.22790
F1348       F  0.12684442  0.54079332  0.15146570    -0.20120
F1349       F  0.14273564  0.54463127  0.10825582    -0.19790
F1350       F  0.00084830  0.54869622  0.07342773    -0.19850
F1351       F  0.01530052  0.59224366  0.06551140    -0.20170
F1352       F  0.99723165  0.58031446  0.10633713    -0.22840
C1353       C  0.00583318  0.52117324  0.86637445    -0.05680
C1354       C  0.01094527  0.54765887  0.85635930     0.00250
C1355       C  0.02589687  0.56627954  0.87257758    -0.08320
C1356       C  0.03329511  0.55833776  0.89930252    -0.05700
C1357       C  0.02581119  0.53266578  0.91089058     0.00230
C1358       C  0.01309444  0.51298691  0.89318167    -0.08230
C1359       C  0.00536291  0.48363972  0.90023228     0.62150
H1360       H  0.99489920  0.50690287  0.85333655     0.12840
H1361       H  0.04399355  0.57300900  0.91202187     0.12850
C1362       C  0.03372356  0.59460774  0.86181692     0.62380
F1363       F  0.01693313  0.46615389  0.88078765    -0.22790
F1364       F  0.97701231  0.48091740  0.89967131    -0.20120
F1365       F  0.01428147  0.47518599  0.92529304    -0.19790
F1366       F  0.01033276  0.61043254  0.85855966    -0.19850
F1367       F  0.04733283  0.59210348  0.83672743    -0.20170
F1368       F  0.05093993  0.60834244  0.87959335    -0.22840
C1369       C  0.90956897  0.52119546  0.04262799    -0.05680
C1370       C  0.90353324  0.54873548  0.04790391     0.00250
C1371       C  0.92469336  0.56850929  0.04527606    -0.08320
C1372       C  0.95151367  0.55962290  0.03839163    -0.05700
C1373       C  0.95823973  0.53181913  0.03270802     0.00230
C1374       C  0.93631356  0.51204958  0.03534852    -0.08230
C1375       C  0.93803118  0.48141660  0.03049842     0.62150
H1376       H  0.89291569  0.50638678  0.04451977     0.12840
H1377       H  0.96761440  0.57495291  0.03662946     0.12850
C1378       C  0.91875239  0.59912792  0.04790536     0.62380
F1379       F  0.92636327  0.46780062  0.05282413    -0.22790
F1380       F  0.96442125  0.47208337  0.02686972    -0.20120
F1381       F  0.92283126  0.47463047  0.00777918    -0.19790
F1382       F  0.91272241  0.60570924  0.07495100    -0.19850
F1383       F  0.89663290  0.60610767  0.03169209    -0.20170
F1384       F  0.94102715  0.61497488  0.03942671    -0.22840
C1385       C  0.91482675  0.48336207  0.94639130    -0.05680
C1386       C  0.90795165  0.45612122  0.94051386     0.00250
C1387       C  0.92827459  0.43540521  0.94225403    -0.08320
C1388       C  0.95428675  0.44266530  0.95186140    -0.05700
C1389       C  0.96108398  0.46970135  0.96003896     0.00230
C1390       C  0.94147386  0.49101602  0.95454119    -0.08230
C1391       C  0.94612340  0.52177629  0.95581399     0.62150
H1392       H  0.89920982  0.49910501  0.94378392     0.12840
H1393       H  0.96964705  0.42661701  0.95342807     0.12850
C1394       C  0.92263957  0.40548017  0.93500751     0.62380
F1395       F  0.93734150  0.53368578  0.93159097    -0.22790
F1396       F  0.97309890  0.52891608  0.95848820    -0.20120
F1397       F  0.93088894  0.53280798  0.97736655    -0.19790
F1398       F  0.92033068  0.40281260  0.90686560    -0.19850
F1399       F  0.89859955  0.39660934  0.94783546    -0.20170
F1400       F  0.94368314  0.38819858  0.94323061    -0.22840
C1401       C  0.00818677  0.45543210  0.12805680    -0.05680
C1402       C  0.02957054  0.43916148  0.13771606     0.00250
C1403       C  0.05248496  0.43328864  0.12045290    -0.08320
C1404       C  0.05249933  0.44310193  0.09305171    -0.05700
C1405       C  0.02977829  0.45753848  0.08259536     0.00230
C1406       C  0.00724811  0.46353881  0.10051926    -0.08230
C1407       C  0.98026888  0.47346149  0.08979554     0.62150
H1408       H  0.99067972  0.45914309  0.14168745     0.12840
H1409       H  0.06946664  0.43815075  0.07918777     0.12850
C1410       C  0.07609159  0.41604262  0.13092390     0.62380
F1411       F  0.96140393  0.47985316  0.11050946    -0.22790
F1412       F  0.96968941  0.45231834  0.07438114    -0.20120
F1413       F  0.98427014  0.49666380  0.07409709    -0.19790
F1414       F  0.06656198  0.39018347  0.13821831    -0.19850
F1415       F  0.08716568  0.42852836  0.15377247    -0.20170
F1416       F  0.09679564  0.41299839  0.11124040    -0.22840
C1417       C  0.08385894  0.48669180  0.90932990    -0.05680
C1418       C  0.08093283  0.46325194  0.92621106     0.00250
C1419       C  0.08608854  0.43690452  0.91437433    -0.08320
C1420       C  0.09318941  0.43522730  0.88634858    -0.05700
C1421       C  0.09629777  0.45852651  0.86954764     0.00230
C1422       C  0.09135886  0.48485461  0.88115197    -0.08230
C1423       C  0.09369046  0.51089655  0.86407183     0.62150
H1424       H  0.07902792  0.50658255  0.91808489     0.12840
H1425       H  0.09677168  0.41506863  0.87743087     0.12850
C1426       C  0.08469659  0.40955070  0.92960963     0.62380
F1427       F  0.09171712  0.53429028  0.88018381    -0.22790
F1428       F  0.07261598  0.51168213  0.84531911    -0.20120
F1429       F  0.11882098  0.51161782  0.85027174    -0.19790
F1430       F  0.06260239  0.39454152  0.92014015    -0.19850
F1431       F  0.08204075  0.41206836  0.95768210    -0.20170
F1432       F  0.10864680  0.39483342  0.92441269    -0.22840
C1433       C  0.12817064  0.43172961  0.00595653    -0.05680
C1434       C  0.11506586  0.45062903  0.02404829     0.00250
C1435       C  0.13173739  0.46322296  0.04413104    -0.08320
C1436       C  0.15877094  0.45374807  0.04816419    -0.05700
C1437       C  0.17106362  0.43471916  0.03050810     0.00230
C1438       C  0.15619330  0.42449943  0.00816757    -0.08230
C1439       C  0.17021978  0.40655321  0.98666338     0.62150
H1440       H  0.11659093  0.42305641  0.98942404     0.12840
H1441       H  0.17115554  0.46195286  0.06457657     0.12850
C1442       C  0.12290710  0.48868425  0.05869326     0.62380
F1443       F  0.15258170  0.39958097  0.96571411    -0.22790
F1444       F  0.17962228  0.38260870  0.99870959    -0.20120
F1445       F  0.19235484  0.42063802  0.97516990    -0.19790
F1446       F  0.09867584  0.48414088  0.07332048    -0.19850
F1447       F  0.11967177  0.50865988  0.03891362    -0.20170
F1448       F  0.14273857  0.49791027  0.07654414    -0.22840
C1449       C  0.40762076  0.46027182  0.02349248    -0.05680
C1450       C  0.39890352  0.46251751  0.05084815     0.00250
C1451       C  0.41696631  0.47326981  0.07050971    -0.08320
C1452       C  0.44445104  0.47827523  0.06267559    -0.05700
C1453       C  0.45441035  0.47449288  0.03548152     0.00230
C1454       C  0.43465000  0.46681932  0.01481696    -0.08230
C1455       C  0.43855961  0.46598829  0.98355324     0.62150
H1456       H  0.39286534  0.45320048  0.00854028     0.12840
H1457       H  0.45839930  0.48578096  0.07809909     0.12850
C1458       C  0.40691914  0.48076372  0.09930710     0.62380
F1459       F  0.42893354  0.44148520  0.97311806    -0.22790
F1460       F  0.46511338  0.46876822  0.97463562    -0.20120
F1461       F  0.42318368  0.48663067  0.97175129    -0.19790
F1462       F  0.40091368  0.45729631  0.11426096    -0.19850
F1463       F  0.38347530  0.49686603  0.09764916    -0.20170
F1464       F  0.42646761  0.49556509  0.11349476    -0.22840
C1465       C  0.55474949  0.59437936  0.05145050    -0.05680
C1466       C  0.53165235  0.57700362  0.04909952     0.00250
C1467       C  0.50529876  0.58859167  0.05456532    -0.08320
C1468       C  0.50282674  0.61606938  0.06263085    -0.05700
C1469       C  0.52549419  0.63328463  0.06521344     0.00230
C1470       C  0.55210104  0.62254104  0.05917232    -0.08230
C1471       C  0.57743008  0.64043348  0.06158927     0.62150
H1472       H  0.57488319  0.58565816  0.04792618     0.12840
H1473       H  0.48258735  0.62486723  0.06619416     0.12850
C1474       C  0.47936169  0.57369927  0.04787170     0.62380
F1475       F  0.60142422  0.62536400  0.05817721    -0.22790
F1476       F  0.57782735  0.65258862  0.08728376    -0.20120
F1477       F  0.57708403  0.66065301  0.04158731    -0.19790
F1478       F  0.47799863  0.54865990  0.06126867    -0.19850
F1479       F  0.47969198  0.57060709  0.01968774    -0.20170
F1480       F  0.45599002  0.58840877  0.05546463    -0.22840
C1481       C  0.62283690  0.55581041  0.02911070    -0.05680
C1482       C  0.61832309  0.52889795  0.03891110     0.00250
C1483       C  0.64134022  0.51379395  0.04853849    -0.08320
C1484       C  0.66709140  0.52683396  0.05058425    -0.05700
C1485       C  0.67099494  0.55418937  0.04258611     0.00230
C1486       C  0.64875921  0.56885261  0.03096861    -0.08230
C1487       C  0.65266334  0.59777436  0.01978694     0.62150
H1488       H  0.60590741  0.56663649  0.01984213     0.12840
H1489       H  0.68453464  0.51572610  0.05870392     0.12850
C1490       C  0.63941565  0.48342434  0.05453065     0.62380
F1491       F  0.62936200  0.60725340  0.00671436    -0.22790
F1492       F  0.67432053  0.59808492  0.00094048    -0.20120
F1493       F  0.65835409  0.61565451  0.04099862    -0.19790
F1494       F  0.62838452  0.47052177  0.03191644    -0.19850
F1495       F  0.62303482  0.47904579  0.07764517    -0.20170
F1496       F  0.66497316  0.47183112  0.05926842    -0.22840
C1497       C  0.58058675  0.36529347  0.03682332    -0.05680
C1498       C  0.60604210  0.36417543  0.04950325     0.00250
C1499       C  0.61940042  0.38949358  0.05555630    -0.08320
C1500       C  0.60531484  0.41459523  0.05063004    -0.05700
C1501       C  0.58020161  0.41576385  0.03659872     0.00230
C1502       C  0.56798355  0.39023930  0.03009370    -0.08230
C1503       C  0.54260482  0.38920852  0.01402300     0.62150
H1504       H  0.57028000  0.34621864  0.03208035     0.12840
H1505       H  0.61387581  0.43328861  0.05839911     0.12850
C1506       C  0.64834720  0.39093882  0.06674517     0.62380
F1507       F  0.53042526  0.36343990  0.01381292    -0.22790
F1508       F  0.55054446  0.39596646  0.98774486    -0.20120
F1509       F  0.52417023  0.40780329  0.02497015    -0.19790
F1510       F  0.66439896  0.36934666  0.05717119    -0.19850
F1511       F  0.64724486  0.39056919  0.09516660    -0.20170
F1512       F  0.66122038  0.41497105  0.05832253    -0.22840
C1513       C  0.01518457  0.37940715  0.55302182    -0.05680
C1514       C  0.99711204  0.36306334  0.53809288     0.00250
C1515       C  0.98071072  0.37519154  0.51770561    -0.08320
C1516       C  0.98327208  0.40360772  0.51264471    -0.05700
C1517       C  0.00100974  0.42056984  0.52794871     0.00230
C1518       C  0.01729877  0.40800163  0.54870084    -0.08230
C1519       C  0.03596198  0.42427392  0.56725650     0.62150
H1520       H  0.02687845  0.36954039  0.56906671     0.12840
H1521       H  0.97096658  0.41277580  0.49669063     0.12850
C1522       C  0.95987012  0.35822599  0.50211768     0.62380
F1523       F  0.04699244  0.40829072  0.58796428    -0.22790
F1524       F  0.02098771  0.44506403  0.57959882    -0.20120
F1525       F  0.05762849  0.43505618  0.55211867    -0.19790
F1526       F  0.93968031  0.34875882  0.52014520    -0.19850
F1527       F  0.97279273  0.33593613  0.48985799    -0.20170
F1528       F  0.94724275  0.37339885  0.48174003    -0.22840
C1529       C  0.00217470  0.61831122  0.44396661    -0.05680
C1530       C  0.99799805  0.63726254  0.46532413     0.00250
C1531       C  0.00163219  0.62850756  0.49298285    -0.08320
C1532       C  0.00917953  0.60085481  0.49791046    -0.05700
C1533       C  0.01160358  0.58173181  0.47641843     0.00230
C1534       C  0.00831899  0.59069630  0.44888561    -0.08230
C1535       C  0.01039231  0.57227027  0.42374790     0.62150
H1536       H  0.99967774  0.62496673  0.42284636     0.12840
H1537       H  0.01154449  0.59347981  0.51878396     0.12850
C1538       C  0.99559936  0.64724285  0.51731120     0.62380
F1539       F  0.98458647  0.56964258  0.41242393    -0.22790
F1540       F  0.02036768  0.54646843  0.42957782    -0.20120
F1541       F  0.02797182  0.58402553  0.40435718    -0.19790
F1542       F  0.96992419  0.65925245  0.51465233    -0.19850
F1543       F  0.01545479  0.66745368  0.51875192    -0.20170
F1544       F  0.99559472  0.63296359  0.54198193    -0.22840
C1545       C  0.00366637  0.49062644  0.39892234    -0.05680
C1546       C  0.01769996  0.47163314  0.41565464     0.00250
C1547       C  0.02740372  0.44689426  0.40369416    -0.08320
C1548       C  0.02168921  0.44143771  0.37595320    -0.05700
C1549       C  0.00608280  0.45967240  0.36024620     0.00230
C1550       C  0.99734120  0.48492623  0.37150293    -0.08230
C1551       C  0.98000090  0.50491982  0.35508858     0.62150
H1552       H  0.99575245  0.50929960  0.40811351     0.12840
H1553       H  0.02784154  0.42206085  0.36674280     0.12850
C1554       C  0.04037564  0.42501491  0.42092130     0.62380
F1555       F  0.97345728  0.52836163  0.36996519    -0.22790
F1556       F  0.95563271  0.49239172  0.34771540    -0.20120
F1557       F  0.99431952  0.51286139  0.33158147    -0.19790
F1558       F  0.02113026  0.41727161  0.44052151    -0.19850
F1559       F  0.06370470  0.43526914  0.43311194    -0.20170
F1560       F  0.04783812  0.40202293  0.40575850    -0.22840
C1561       C  0.99637895  0.54588027  0.57888652    -0.05680
C1562       C  0.98657256  0.51946701  0.57282258     0.00250
C1563       C  0.97242152  0.50419588  0.59356358    -0.08320
C1564       C  0.97035296  0.51530851  0.62026724    -0.05700
C1565       C  0.98101283  0.54133620  0.62652319     0.00230
C1566       C  0.99405720  0.55709855  0.60548907    -0.08230
C1567       C  0.00673347  0.58502258  0.61136861     0.62150
H1568       H  0.00685516  0.55731356  0.56266979     0.12840
H1569       H  0.95989562  0.50367166  0.63636646     0.12850
C1570       C  0.95889749  0.47654186  0.58888430     0.62380
F1571       F  0.02101946  0.59537514  0.58876705    -0.22790
F1572       F  0.02495327  0.58274301  0.63284681    -0.20120
F1573       F  0.98637942  0.60374394  0.61830056    -0.19790
F1574       F  0.97096206  0.45698463  0.60551117    -0.19850
F1575       F  0.96088006  0.46779347  0.56194709    -0.20170
F1576       F  0.93121716  0.47841111  0.59588529    -0.22840
C1577       C  0.44391887  0.95330933  0.48774693    -0.05680
C1578       C  0.45965748  0.97148623  0.47095834     0.00250
C1579       C  0.44632159  0.98391989  0.44805418    -0.08320
C1580       C  0.42015571  0.97420698  0.44079833    -0.05700
C1581       C  0.40574010  0.95515477  0.45701229     0.00230
C1582       C  0.41728333  0.94497943  0.48130424    -0.08230
C1583       C  0.40214998  0.92435632  0.49965730     0.62150
H1584       H  0.45293466  0.94476077  0.50605534     0.12840
H1585       H  0.41042642  0.98208918  0.42245144     0.12850
C1586       C  0.45726551  0.00744084  0.43075590     0.62380
F1587       F  0.41841629  0.91486065  0.52080434    -0.22790
F1588       F  0.39422846  0.90184280  0.48433400    -0.20120
F1589       F  0.37906998  0.93658984  0.51132433    -0.19790
F1590       F  0.46718321  0.99768359  0.40580931    -0.19850
F1591       F  0.47731613  0.02168116  0.44386446    -0.20170
F1592       F  0.43633386  0.02608968  0.42573224    -0.22840
C1593       C  0.62444208  0.92301239  0.52229347    -0.05680
C1594       C  0.62217167  0.94901717  0.50925875     0.00250
C1595       C  0.64715426  0.96334222  0.50346978    -0.08320
C1596       C  0.67238039  0.95233299  0.51214652    -0.05700
C1597       C  0.67391995  0.92783103  0.52711247     0.00230
C1598       C  0.64969938  0.91203483  0.53098848    -0.08230
C1599       C  0.64947716  0.88389124  0.54461012     0.62150
H1600       H  0.60604997  0.91108637  0.52661235     0.12840
H1601       H  0.69108723  0.96415580  0.50929078     0.12850
C1602       C  0.64744625  0.99188851  0.49225853     0.62380
F1603       F  0.62907450  0.86751317  0.53367649    -0.22790
F1604       F  0.64421822  0.88684779  0.57248608    -0.20120
F1605       F  0.67422433  0.87024674  0.54053821    -0.19790
F1606       F  0.63552872  0.00811343  0.51217597    -0.19850
F1607       F  0.63315000  0.99290426  0.46811427    -0.20170
F1608       F  0.67377068  0.00169527  0.48680805    -0.22840
C1609       C  0.59818003  0.96368910  0.41555272    -0.05680
C1610       C  0.57042303  0.95965061  0.42272493     0.00250
C1611       C  0.55198691  0.95023005  0.40225419    -0.08320
C1612       C  0.56234393  0.94433006  0.37573096    -0.05700
C1613       C  0.59023478  0.94768939  0.36889276     0.00230
C1614       C  0.60856289  0.95778888  0.38897062    -0.08230
C1615       C  0.63883943  0.96284640  0.38237881     0.62150
H1616       H  0.61193172  0.97064758  0.43119760     0.12840
H1617       H  0.54869374  0.93680355  0.36002427     0.12850
C1618       C  0.52127192  0.94724806  0.40785807     0.62380
F1619       F  0.65193362  0.97601011  0.40371195    -0.22790
F1620       F  0.64142269  0.97915729  0.35913521    -0.20120
F1621       F  0.65226215  0.93816601  0.37795820    -0.19790
F1622       F  0.51144039  0.97079654  0.42037628    -0.19850
F1623       F  0.51624993  0.92482121  0.42472062    -0.20170
F1624       F  0.50669930  0.94352268  0.38389711    -0.22840
C1625       C  0.53122013  0.94281925  0.59600025    -0.05680
C1626       C  0.52565089  0.96958914  0.58614136     0.00250
C1627       C  0.51438423  0.98931356  0.60522652    -0.08320
C1628       C  0.50732411  0.98039131  0.63197422    -0.05700
C1629       C  0.50973527  0.95293381  0.63992770     0.00230
C1630       C  0.52301298  0.93398378  0.62231792    -0.08230
C1631       C  0.52841405  0.90451507  0.63123922     0.62150
H1632       H  0.54104496  0.92811482  0.58228939     0.12840
H1633       H  0.49797982  0.99477081  0.64642275     0.12850
C1634       C  0.50810549  0.01945561  0.60002952     0.62380
F1635       F  0.54515511  0.89066802  0.61253550    -0.22790
F1636       F  0.50385002  0.89030099  0.63359380    -0.20120
F1637       F  0.54137542  0.90438668  0.65636917    -0.19790
F1638       F  0.48116303  0.02528561  0.60773694    -0.19850
F1639       F  0.51131505  0.02733901  0.57327252    -0.20170
F1640       F  0.52518632  0.03531155  0.61599090    -0.22840
C1641       C  0.08168000  0.59421320  0.51342533    -0.05680
C1642       C  0.07917321  0.57412245  0.53398863     0.00250
C1643       C  0.08039141  0.58234586  0.56177925    -0.08320
C1644       C  0.08220678  0.61057857  0.56794494    -0.05700
C1645       C  0.08443152  0.63078801  0.54725011     0.00230
C1646       C  0.08460720  0.62239264  0.51930883    -0.08230
C1647       C  0.08923388  0.64243202  0.49564748     0.62150
H1648       H  0.08182390  0.58742694  0.49246694     0.12840
H1649       H  0.08277707  0.61706676  0.58922227     0.12850
C1650       C  0.08146482  0.56141538  0.58464890     0.62380
F1651       F  0.09401607  0.62896494  0.47102124    -0.22790
F1652       F  0.11195359  0.65877745  0.50048214    -0.20120
F1653       F  0.06617268  0.65867451  0.49245695    -0.19790
F1654       F  0.10356177  0.54392728  0.58019228    -0.19850
F1655       F  0.05737794  0.54666019  0.58498097    -0.20170
F1656       F  0.08438599  0.57348181  0.61020953    -0.22840
C1657       C  0.05484771  0.39510713  0.48337116    -0.05680
C1658       C  0.07710565  0.41161670  0.49114029     0.00250
C1659       C  0.10301535  0.39869533  0.49532531    -0.08320
C1660       C  0.10698393  0.37163601  0.48591834    -0.05700
C1661       C  0.08573262  0.35676144  0.47372391     0.00230
C1662       C  0.05885835  0.36808217  0.47343870    -0.08230
C1663       C  0.03512662  0.35248963  0.46087574     0.62150
H1664       H  0.03457809  0.40408880  0.48359324     0.12840
H1665       H  0.12721201  0.36226721  0.48699744     0.12850
C1666       C  0.12627409  0.41273489  0.51041386     0.62380
F1667       F  0.01116263  0.36786022  0.46080569    -0.22790
F1668       F  0.03003133  0.32878378  0.47576445    -0.20120
F1669       F  0.04162715  0.34564599  0.43392926    -0.19790
F1670       F  0.11584634  0.42679296  0.53300660    -0.19850
F1671       F  0.14005031  0.43079865  0.49306042    -0.20170
F1672       F  0.14518160  0.39376243  0.51994873    -0.22840
C1673       C  0.07691149  0.50717632  0.39894149    -0.05680
C1674       C  0.07901781  0.52709087  0.41968646     0.00250
C1675       C  0.08633982  0.55422322  0.41227475    -0.08320
C1676       C  0.08953370  0.56101727  0.38429386    -0.05700
C1677       C  0.08740605  0.54126338  0.36335736     0.00230
C1678       C  0.08127177  0.51364206  0.37082971    -0.08230
C1679       C  0.08059040  0.49081498  0.34966026     0.62150
H1680       H  0.07274481  0.48618276  0.40510133     0.12840
H1681       H  0.09446257  0.58198958  0.37854807     0.12850
C1682       C  0.09128139  0.57580737  0.43387099     0.62380
F1683       F  0.07887996  0.46509728  0.36183040    -0.22790
F1684       F  0.10429653  0.49136795  0.33348631    -0.20120
F1685       F  0.05786964  0.49416696  0.33333144    -0.19790
F1686       F  0.11143811  0.56694353  0.45163039    -0.19850
F1687       F  0.06707750  0.58020259  0.44828100    -0.20170
F1688       F  0.09973646  0.60057713  0.42246136    -0.22840
C1689       C  0.11559566  0.47385040  0.58730732    -0.05680
C1690       C  0.08828397  0.48403633  0.58422905     0.00250
C1691       C  0.07233420  0.48620912  0.60945926    -0.08320
C1692       C  0.08388201  0.47884502  0.63473362    -0.05700
C1693       C  0.10990695  0.46724158  0.63679254     0.00230
C1694       C  0.12656615  0.46534792  0.61272240    -0.08230
C1695       C  0.15584712  0.45429535  0.61314944     0.62150
H1696       H  0.12884122  0.47178247  0.56933434     0.12840
H1697       H  0.07130944  0.48048330  0.65334192     0.12850
C1698       C  0.04283561  0.49436765  0.61266632     0.62380
F1699       F  0.17141652  0.46458289  0.59134766    -0.22790
F1700       F  0.15534917  0.42595257  0.61101091    -0.20120
F1701       F  0.16889046  0.46176862  0.63709214    -0.19790
F1702       F  0.03179239  0.49820931  0.58799263    -0.19850
F1703       F  0.04070968  0.51831518  0.62788899    -0.20170
F1704       F  0.02800714  0.47386913  0.62605913    -0.22840
loop_ 
_geom_bond_atom_site_label_1 
_geom_bond_atom_site_label_2 
_geom_bond_distance 
_geom_bond_site_symmetry_2 
_ccdc_geom_bond_type 
O1           Cu9   1.958       .  S
O1           C11   1.268       .  A
O2           Cu9   2.007       .  S
O2           C12   1.275       .  A
O3           Cu9   1.971       .  S
O3           C13   1.260       .  A
O4           Cu9   1.938       .  S
O4           C14   1.254       .  A
O5          Cu10   2.438       .  S
O5           C14   1.282       .  A
O6          Cu10   2.674       .  S
O6           C13   1.321       .  A
O7          Cu10   2.438       .  S
O7           C12   1.329       .  A
O8          Cu10   2.684       .  S
O8           C11   1.291       .  A
Cu9         Cu10   3.412       .  S
C11        C1658   1.497       .  S
C12        C1642   1.490       .  S
C13        C1690   1.552       .  S
C14        C1674   1.487       .  S
O15         Cu23   1.950       .  S
O15          C25   1.268       .  A
O16         Cu23   1.970       .  S
O16          C26   1.264       .  A
O17         Cu23   1.957       .  S
O17          C27   1.262       .  A
O18         Cu23   1.889       .  S
O18          C28   1.260       .  A
O19         Cu24   2.445   1_565  S
O19          C28   1.292       .  A
O20         Cu24   2.666   1_565  S
O20          C27   1.327       .  A
O21         Cu24   2.448   1_565  S
O21          C26   1.326       .  A
O22         Cu24   2.647   1_565  S
O22          C25   1.283       .  A
Cu23        Cu24   3.376   1_565  S
C25        C1626   1.500       .  S
C26        C1610   1.490       .  S
C27        C1594   1.523       .  S
C28        C1578   1.505       .  S
O29         Cu37   1.966       .  S
O29          C39   1.270   1_655  A
O30         Cu37   2.010       .  S
O30          C40   1.275   1_655  A
O31         Cu37   1.929       .  S
O31          C41   1.247       .  A
O32         Cu37   1.880       .  S
O32          C42   1.252   1_655  A
O33         Cu38   2.472       .  S
O33          C42   1.292       .  A
O34         Cu38   2.604       .  S
O34          C41   1.313   1_455  A
O35         Cu38   2.411       .  S
O35          C40   1.327       .  A
O36         Cu38   2.694       .  S
O36          C39   1.289       .  A
Cu37        Cu38   3.463   1_655  S
C39        C1533   1.475       .  S
C40        C1517   1.506       .  S
C41        C1562   1.480       .  S
C42        C1546   1.492       .  S
O43         Cu51   2.639   1_554  S
O43          C53   1.286       .  A
O44         Cu51   2.453   1_554  S
O44          C54   1.333       .  A
O45         Cu51   2.478   1_554  S
O45          C55   1.295       .  A
O46         Cu51   2.620   1_554  S
O46          C56   1.317       .  A
O47         Cu52   2.019       .  S
O47          C56   1.263       .  A
O48         Cu52   1.951       .  S
O48          C55   1.256       .  A
O49         Cu52   2.038       .  S
O49          C54   1.273       .  A
O50         Cu52   2.018       .  S
O50          C53   1.282       .  A
Cu51        Cu52   3.372   1_556  S
C53        C1453   1.516       .  S
C54        C1482   1.503       .  S
C55        C1501   1.523       .  S
C56        C1466   1.511       .  S
N57          N58   1.324       .  A
N57          C61   1.350       .  A
N57         Cu65   2.095       .  S
N58          C59   1.341       .  A
N58         Cu64   2.063       .  S
C59          C60   1.376       .  A
C59          H62   1.082       .  S
C60        C1437   1.473       .  S
C60          C61   1.387       .  A
C61          H63   1.082       .  S
Cu64         N67   2.061       .  S
Cu65         N75   2.095       .  S
Cu66         N68   2.050       .  S
Cu66         N74   2.050       .  S
N67          N68   1.319       .  A
N67          C71   1.344       .  A
N68          C69   1.342       .  A
C69          C70   1.380       .  A
C69          H72   1.082       .  S
C70         C916   1.462       .  S
C70          C71   1.382       .  A
C71          H73   1.082       .  S
N74          N75   1.323       .  A
N74          C78   1.338       .  A
N75          C76   1.350       .  A
C76          C77   1.389       .  A
C76          H79   1.082       .  S
C77        C1450   1.475       .  S
C77          C78   1.375       .  A
C78          H80   1.082       .  S
N81          N82   1.323       .  A
N81          C85   1.348       .  A
N81         Cu89   2.109       .  S
N82          C83   1.344       .  A
N82         Cu88   2.062       .  S
C83          C84   1.382       .  A
C83          H86   1.079       .  S
C84        C1693   1.492       .  S
C84          C85   1.394       .  A
C85          H87   1.082       .  S
Cu88         N91   2.061       .  S
Cu89         N99   2.107       .  S
Cu90         N92   2.062       .  S
Cu90         N98   2.062       .  S
N91          N92   1.320       .  A
N91          C95   1.344       .  A
N92          C93   1.343       .  A
C93          C94   1.382       .  A
C93          H96   1.082       .  S
C94         C844   1.466       .  S
C94          C95   1.382       .  A
C95          H97   1.082       .  S
N98          N99   1.321       .  A
N98         C102   1.339       .  A
N99         C100   1.354       .  A
C100        C101   1.396       .  A
C100        H103   1.079       .  S
C101       C1421   1.494       .  S
C101        C102   1.382       .  A
C102        H104   1.082       .  S
N105        N106   1.322       .  A
N105        C109   1.344   1_655  A
N105       Cu113   2.060   1_655  S
N106        C107   1.342       .  A
N106       Cu112   2.068       .  S
C107        C108   1.380       .  A
C107        H110   1.082       .  S
C108       C1549   1.467   1_655  S
C108        C109   1.379   1_655  A
C109        H111   1.080       .  S
Cu112       N115   2.068       .  S
Cu113       N123   2.062       .  S
Cu114       N116   2.083       .  S
Cu114       N122   2.084       .  S
N115        N116   1.322       .  A
N115        C119   1.343       .  A
N116        C117   1.348       .  A
C117        C118   1.385       .  A
C117        H120   1.082       .  S
C118        C758   1.470       .  S
C118        C119   1.381       .  A
C119        H121   1.082       .  S
N122        N123   1.321   1_655  A
N122        C126   1.342   1_655  A
N123        C124   1.346       .  A
C124        C125   1.383       .  A
C124        H127   1.082       .  S
C125       C1402   1.472       .  S
C125        C126   1.387       .  A
C126        H128   1.082   1_455  S
O129       Cu137   1.985   1_554  S
O129        C139   1.271       .  A
O130       Cu137   1.967       .  S
O130        C140   1.278       .  A
O131       Cu137   1.936   1_554  S
O131        C141   1.251       .  A
O132       Cu137   1.909   1_655  S
O132        C142   1.257       .  A
O133       Cu138   2.454   1_556  S
O133        C142   1.277   1_455  A
O134       Cu138   2.701       .  S
O134        C141   1.292       .  A
O135       Cu138   2.591   1_556  S
O135        C140   1.307       .  A
O136       Cu138   2.478       .  S
O136        C139   1.303       .  A
Cu137      Cu138   3.460   1_556  S
C139       C1405   1.490       .  S
C140       C1418   1.491       .  S
C141       C1434   1.516       .  S
C142       C1389   1.509       .  S
N143        N144   1.323       .  A
N143        C147   1.352       .  A
N143       Cu151   2.111       .  S
N144        C145   1.341       .  A
N144       Cu150   2.053       .  S
C145        C146   1.377       .  A
C145        H148   1.081       .  S
C146       C1370   1.483       .  S
C146        C147   1.392       .  A
C147        H149   1.082       .  S
Cu150       N153   2.052       .  S
Cu151       N161   2.111       .  S
Cu152       N154   2.067       .  S
Cu152       N160   2.068       .  S
N153        N154   1.320       .  A
N153        C157   1.343       .  A
N154        C155   1.343       .  A
C155        C156   1.383       .  A
C155        H158   1.082       .  S
C156        C789   1.464       .  S
C156        C157   1.380       .  A
C157        H159   1.082       .  S
N160        N161   1.324       .  A
N160        C164   1.344       .  A
N161        C162   1.351       .  A
C162        C163   1.392       .  A
C162        H165   1.082       .  S
C163       C1485   1.486       .  S
C163        C164   1.381       .  A
C164        H166   1.081       .  S
N167        N168   1.323       .  A
N167        C171   1.352       .  A
N167       Cu175   2.108       .  S
N168        C169   1.341       .  A
N168       Cu174   2.055       .  S
C169        C170   1.377       .  A
C169        H172   1.081       .  S
C170       C1565   1.482       .  S
C170        C171   1.391       .  A
C171        H173   1.082   1_655  S
Cu174       N177   2.054       .  S
Cu175       N185   2.109       .  S
Cu176       N178   2.074       .  S
Cu176       N184   2.076       .  S
N177        N178   1.320       .  A
N177        C181   1.342       .  A
N178        C179   1.346       .  A
C179        C180   1.385       .  A
C179        H182   1.082       .  S
C180        C892   1.466       .  S
C180        C181   1.380       .  A
C181        H183   1.082       .  S
N184        N185   1.325       .  A
N184        C188   1.343       .  A
N185        C186   1.352   1_655  A
C186        C187   1.388   1_455  A
C186        H189   1.082       .  S
C187       C1354   1.483   1_655  S
C187        C188   1.379       .  A
C188        H190   1.082       .  S
N191        N192   1.325       .  A
N191        C195   1.353       .  A
N191       Cu199   2.113       .  S
N192        C193   1.343       .  A
N192       Cu198   2.069       .  S
C193        C194   1.379       .  A
C193        H196   1.082       .  S
C194       C1341   1.484       .  S
C194        C195   1.390       .  A
C195        H197   1.082       .  S
Cu198       N201   2.068       .  S
Cu199       N209   2.113       .  S
Cu200       N202   2.064       .  S
Cu200       N208   2.065       .  S
N201        N202   1.320       .  A
N201        C205   1.345       .  A
N202        C203   1.345       .  A
C203        C204   1.382       .  A
C203        H206   1.082       .  S
C204        C813   1.466       .  S
C204        C205   1.382       .  A
C205        H207   1.082       .  S
N208        N209   1.323       .  A
N208        C212   1.340       .  A
N209        C210   1.354       .  A
C210        C211   1.396       .  A
C210        H213   1.079       .  S
C211       C1677   1.496       .  S
C211        C212   1.383       .  A
C212        H214   1.082       .  S
O215       Cu223   1.964   1_554  S
O215        C225   1.253       .  A
O216       Cu223   1.929       .  S
O216        C226   1.255       .  A
O217       Cu223   1.957   1_654  S
O217        C227   1.278       .  A
O218       Cu223   2.016       .  S
O218        C228   1.275       .  A
O219       Cu224   2.510   1_554  S
O219        C228   1.301   1_554  A
O220       Cu224   2.515   1_554  S
O220        C227   1.308   1_455  A
O221       Cu224   2.495       .  S
O221        C226   1.279       .  A
O222       Cu224   2.723   1_554  S
O222        C225   1.301       .  A
Cu223      Cu224   3.454       .  S
C225       C1338   1.524       .  S
C226       C1357   1.510       .  S
C227       C1373   1.520       .  S
C228       C1322   1.486       .  S
N229        N230   1.319       .  A
N229        C233   1.350       .  A
N229       Cu237   2.096       .  S
N230        C231   1.334       .  A
N230       Cu236   2.050       .  S
C231        C232   1.387       .  A
C231        H234   1.081       .  S
C232       C1309   1.505       .  S
C232        C233   1.401       .  A
C233        H235   1.075       .  S
Cu236       N239   2.048       .  S
Cu237       N247   2.097       .  S
Cu238       N240   2.046       .  S
Cu238       N246   2.047       .  S
N239        N240   1.317       .  A
N239        C243   1.342       .  A
N240        C241   1.340       .  A
C241        C242   1.380       .  A
C241        H244   1.082       .  S
C242        C878   1.460       .  S
C242        C243   1.381       .  A
C243        H245   1.082       .  S
N246        N247   1.323       .  A
N246        C250   1.338       .  A
N247        C248   1.349       .  A
C248        C249   1.388       .  A
C248        H251   1.082       .  S
C249       C1386   1.474       .  S
C249        C250   1.374       .  A
C250        H252   1.080       .  S
N253        N254   1.324       .  A
N253        C257   1.354       .  A
N253       Cu261   2.113       .  S
N254        C255   1.341       .  A
N254       Cu260   2.063       .  S
C255        C256   1.377       .  A
C255        H258   1.082       .  S
C256       C1325   1.482       .  S
C256        C257   1.391       .  A
C257        H259   1.082       .  S
Cu260       N263   2.062       .  S
Cu261       N271   2.113       .  S
Cu262       N264   2.042       .  S
Cu262       N270   2.042       .  S
N263        N264   1.319       .  A
N263        C267   1.345       .  A
N264        C265   1.338       .  A
C265        C266   1.378       .  A
C265        H268   1.082       .  S
C266        C820   1.460       .  S
C266        C267   1.383       .  A
C267        H269   1.082       .  S
N270        N271   1.321       .  A
N270        C274   1.343       .  A
N271        C272   1.348       .  A
C272        C273   1.395       .  A
C272        H275   1.082       .  S
C273       C1290   1.485       .  S
C273        C274   1.378       .  A
C274        H276   1.080       .  S
O277       Cu285   2.029       .  S
O277        C287   1.279       .  A
O278       Cu285   2.031       .  S
O278        C288   1.275       .  A
O279       Cu285   1.943       .  S
O279        C289   1.250       .  A
O280       Cu285   1.891       .  S
O280        C290   1.254       .  A
O281       Cu286   2.531   1_556  S
O281        C290   1.299       .  A
O282       Cu286   2.452   1_556  S
O282        C289   1.301       .  A
O283       Cu286   2.503   1_556  S
O283        C288   1.343       .  A
O284       Cu286   2.782   1_556  S
O284        C287   1.285       .  A
Cu285      Cu286   3.386   1_556  S
C287       C1306   1.488       .  S
C288       C1293   1.522       .  S
C289       C1274   1.489       .  S
C290       C1258   1.520       .  S
N291        N292   1.319       .  A
N291        C295   1.348       .  A
N291       Cu299   2.115       .  S
N292        C293   1.342       .  A
N292       Cu298   2.036       .  S
C293        C294   1.382       .  A
C293        H296   1.078       .  S
C294       C1498   1.498       .  S
C294        C295   1.401       .  A
C295        H297   1.082       .  S
Cu298       N301   2.037       .  S
Cu299       N309   2.115       .  S
Cu300       N302   2.095       .  S
Cu300       N308   2.098       .  S
N301        N302   1.321       .  A
N301        C305   1.339       .  A
N302        C303   1.350       .  A
C303        C304   1.389       .  A
C303        H306   1.082       .  S
C304        C765   1.466       .  S
C304        C305   1.374       .  A
C305        H307   1.082       .  S
N308        N309   1.326       .  A
N308        C312   1.348       .  A
N309        C310   1.353       .  A
C310        C311   1.389       .  A
C310        H313   1.082       .  S
C311       C1242   1.491       .  S
C311        C312   1.385       .  A
C312        H314   1.082       .  S
N315        N316   1.322       .  A
N315        C319   1.351       .  A
N315       Cu323   2.088       .  S
N316        C317   1.340       .  A
N316       Cu322   2.085       .  S
C317        C318   1.390       .  A
C317        H320   1.082       .  S
C318       C1277   1.500       .  S
C318        C319   1.393       .  A
C319        H321   1.077       .  S
Cu322       N325   2.083       .  S
Cu323       N333   2.088       .  S
Cu324       N326   2.054       .  S
Cu324       N332   2.052       .  S
N325        N326   1.320       .  A
N325        C329   1.348       .  A
N326        C327   1.343       .  A
C327        C328   1.379       .  A
C327        H330   1.082       .  S
C328        C909   1.467       .  S
C328        C329   1.386       .  A
C329        H331   1.082       .  S
N332        N333   1.319       .  A
N332        C336   1.337       .  A
N333        C334   1.348       .  A
C334        C335   1.395       .  A
C334        H337   1.077       .  S
C335       C1226   1.497       .  S
C335        C336   1.386       .  A
C336        H338   1.081       .  S
N339        N340   1.323       .  A
N339        C343   1.353       .  A
N339       Cu347   2.109       .  S
N340        C341   1.339       .  A
N340       Cu346   2.064       .  S
C341        C342   1.382       .  A
C341        H344   1.082       .  S
C342       C1210   1.495       .  S
C342        C343   1.395       .  A
C343        H345   1.079       .  S
Cu346       N349   2.062       .  S
Cu347       N357   2.109       .  S
Cu348       N350   2.045       .  S
Cu348       N356   2.046       .  S
N349        N350   1.318       .  A
N349        C353   1.344       .  A
N350        C351   1.341       .  A
C351        C352   1.379       .  A
C351        H354   1.082       .  S
C352        C772   1.461       .  S
C352        C353   1.383       .  A
C353        H355   1.082       .  S
N356        N357   1.323       .  A
N356        C360   1.339       .  A
N357        C358   1.351       .  A
C358        C359   1.392       .  A
C358        H361   1.082       .  S
C359       C1613   1.481       .  S
C359        C360   1.375       .  A
C360        H362   1.080       .  S
O363       Cu371   1.895       .  S
O363        C373   1.246       .  A
O364       Cu371   1.951   1_544  S
O364        C374   1.249       .  A
O365       Cu371   1.972   1_554  S
O365        C375   1.271       .  A
O366       Cu371   2.035   1_545  S
O366        C376   1.279       .  A
O367       Cu372   2.392       .  S
O367        C376   1.328       .  A
O368       Cu372   2.735   1_564  S
O368        C375   1.289       .  A
O369       Cu372   2.583       .  S
O369        C374   1.305   1_556  A
O370       Cu372   2.469   1_565  S
O370        C373   1.285       .  A
Cu371      Cu372   3.441   1_565  S
C373       C1229   1.481       .  S
C374       C1245   1.500       .  S
C375       C1213   1.479       .  S
C376       C1194   1.505       .  S
N377        N378   1.323       .  A
N377        C381   1.349       .  A
N377       Cu385   2.097       .  S
N378        C379   1.340       .  A
N378       Cu384   2.053       .  S
C379        C380   1.375       .  A
C379        H382   1.082       .  S
C380       C1178   1.475       .  S
C380        C381   1.388       .  A
C381        H383   1.080       .  S
Cu384       N387   2.052       .  S
Cu385       N395   2.097       .  S
Cu386       N388   2.085       .  S
Cu386       N394   2.088       .  S
N387        N388   1.319       .  A
N387        C391   1.342       .  A
N388        C389   1.349       .  A
C389        C390   1.387       .  A
C389        H392   1.082       .  S
C390        C796   1.469       .  S
C390        C391   1.379       .  A
C391        H393   1.082       .  S
N394        N395   1.323       .  A
N394        C398   1.340       .  A
N395        C396   1.354       .  A
C396        C397   1.393       .  A
C396        H399   1.080       .  S
C397       C1469   1.495       .  S
C397        C398   1.389       .  A
C398        H400   1.082       .  S
N401        N402   1.322       .  A
N401        C405   1.348       .  A
N401       Cu409   2.088       .  S
N402        C403   1.339       .  A
N402       Cu408   2.045       .  S
C403        C404   1.374       .  A
C403        H406   1.082       .  S
C404       C1261   1.468       .  S
C404        C405   1.386       .  A
C405        H407   1.082       .  S
Cu408       N411   2.045       .  S
Cu409       N419   2.089       .  S
Cu410       N412   2.078       .  S
Cu410       N418   2.080       .  S
N411        N412   1.320       .  A
N411        C415   1.340       .  A
N412        C413   1.347       .  A
C413        C414   1.385       .  A
C413        H416   1.082       .  S
C414        C861   1.463       .  S
C414        C415   1.377       .  A
C415        H417   1.082       .  S
N418        N419   1.325       .  A
N418        C422   1.344       .  A
N419        C420   1.349       .  A
C420        C421   1.383       .  A
C420        H423   1.082       .  S
C421       C1165   1.476       .  S
C421        C422   1.380       .  A
C422        H424   1.082       .  S
N425        N426   1.322       .  A
N425        C429   1.343       .  A
N425       Cu433   2.069       .  S
N426        C427   1.343       .  A
N426       Cu432   2.063       .  S
C427        C428   1.382       .  A
C427        H430   1.080       .  S
C428       C1146   1.475       .  S
C428        C429   1.382       .  A
C429        H431   1.082       .  S
Cu432       N435   2.062       .  S
Cu433       N443   2.068       .  S
Cu434       N436   2.061       .  S
Cu434       N442   2.062       .  S
N435        N436   1.321       .  A
N435        C439   1.342       .  A
N436        C437   1.344       .  A
C437        C438   1.381       .  A
C437        H440   1.082       .  S
C438        C830   1.463       .  S
C438        C439   1.381       .  A
C439        H441   1.082       .  S
N442        N443   1.322       .  A
N442        C446   1.340       .  A
N443        C444   1.346       .  A
C444        C445   1.381       .  A
C444        H447   1.082       .  S
C445       C1629   1.470       .  S
C445        C446   1.379       .  A
C446        H448   1.082       .  S
O449       Cu457   2.452   1_565  S
O449        C459   1.283       .  A
O450       Cu457   2.552       .  S
O450        C460   1.305   1_554  A
O451       Cu457   2.436       .  S
O451        C461   1.335       .  A
O452       Cu457   2.726   1_566  S
O452        C462   1.302       .  A
O453       Cu458   1.931   1_556  S
O453        C462   1.266       .  A
O454       Cu458   1.977   1_545  S
O454        C461   1.262       .  A
O455       Cu458   1.988   1_546  S
O455        C460   1.257       .  A
O456       Cu458   1.896       .  S
O456        C459   1.250       .  A
Cu457      Cu458   3.455   1_545  S
C459       C1181   1.476       .  S
C460       C1162   1.484       .  S
C461       C1130   1.490       .  S
C462       C1149   1.517       .  S
N463        N464   1.322       .  A
N463        C467   1.343       .  A
N463       Cu471   2.074       .  S
N464        C465   1.344       .  A
N464       Cu470   2.073       .  S
C465        C466   1.387       .  A
C465        H468   1.079       .  S
C466       C1597   1.488       .  S
C466        C467   1.387       .  A
C467        H469   1.082       .  S
Cu470       N473   2.073       .  S
Cu471       N481   2.073       .  S
Cu472       N474   2.077       .  S
Cu472       N480   2.077       .  S
N473        N474   1.322       .  A
N473        C477   1.346       .  A
N474        C475   1.345       .  A
C475        C476   1.384       .  A
C475        H478   1.082       .  S
C476        C902   1.472       .  S
C476        C477   1.383       .  A
C477        H479   1.082       .  S
N480        N481   1.321       .  A
N480        C484   1.341       .  A
N481        C482   1.349       .  A
C482        C483   1.386       .  A
C482        H485   1.080       .  S
C483       C1114   1.482       .  S
C483        C484   1.385       .  A
C484        H486   1.082       .  S
N487        N488   1.324       .  A
N487        C491   1.355   1_655  A
N487       Cu495   2.118       .  S
N488        C489   1.337       .  A
N488       Cu494   2.040       .  S
C489        C490   1.370       .  A
C489        H492   1.082       .  S
C490       C1514   1.475       .  S
C490        C491   1.392   1_655  A
C491        H493   1.081       .  S
Cu494       N497   2.039       .  S
Cu495       N505   2.119       .  S
Cu496       N498   2.047       .  S
Cu496       N504   2.050       .  S
N497        N498   1.317       .  A
N497        C501   1.341       .  A
N498        C499   1.341       .  A
C499        C500   1.380       .  A
C499        H502   1.082       .  S
C500        C868   1.456       .  S
C500        C501   1.379       .  A
C501        H503   1.082       .  S
N504        N505   1.324       .  A
N504        C508   1.339       .  A
N505        C506   1.355   1_655  A
C506        C507   1.393       .  A
C506        H509   1.082       .  S
C507       C1098   1.481       .  S
C507        C508   1.375   1_455  A
C508        H510   1.082       .  S
N511        N512   1.321       .  A
N511        C515   1.349       .  A
N511       Cu519   2.096       .  S
N512        C513   1.340       .  A
N512       Cu518   2.054       .  S
C513        C514   1.382       .  A
C513        H516   1.082       .  S
C514       C1645   1.490       .  S
C514        C515   1.394       .  A
C515        H517   1.077       .  S
Cu518       N521   2.053       .  S
Cu519       N529   2.096       .  S
Cu520       N522   2.058       .  S
Cu520       N528   2.060       .  S
N521        N522   1.319       .  A
N521        C525   1.341       .  A
N522        C523   1.344       .  A
C523        C524   1.381       .  A
C523        H526   1.082       .  S
C524        C837   1.462       .  S
C524        C525   1.380       .  A
C525        H527   1.082       .  S
N528        N529   1.323       .  A
N528        C532   1.341       .  A
N529        C530   1.349       .  A
C530        C531   1.389       .  A
C530        H533   1.082       .  S
C531       C1082   1.478       .  S
C531        C532   1.379       .  A
C532        H534   1.081       .  S
O535       Cu543   2.618       .  S
O535        C545   1.311       .  A
O536       Cu543   2.442   1_565  S
O536        C546   1.280       .  A
O537       Cu543   2.709   1_665  S
O537        C547   1.293       .  A
O538       Cu543   2.408       .  S
O538        C548   1.329       .  A
O539       Cu544   1.991   1_545  S
O539        C548   1.271       .  A
O540       Cu544   1.954   1_655  S
O540        C547   1.268       .  A
O541       Cu544   1.903       .  S
O541        C546   1.251       .  A
O542       Cu544   1.954   1_545  S
O542        C545   1.252       .  A
Cu543      Cu544   3.446   1_545  S
C545       C1101   1.493       .  S
C546       C1085   1.477       .  S
C547       C1117   1.489       .  S
C548       C1066   1.492       .  S
N549        N550   1.322       .  A
N549        C553   1.350       .  A
N549       Cu557   2.106       .  S
N550        C551   1.340       .  A
N550       Cu556   2.041       .  S
C551        C552   1.375       .  A
C551        H554   1.080       .  S
C552       C1197   1.480       .  S
C552        C553   1.392       .  A
C553        H555   1.082       .  S
Cu556       N559   2.042       .  S
Cu557       N567   2.107       .  S
Cu558       N560   2.052       .  S
Cu558       N566   2.053       .  S
N559        N560   1.319       .  A
N559        C563   1.339       .  A
N560        C561   1.342       .  A
C561        C562   1.382       .  A
C561        H564   1.082       .  S
C562        C885   1.458       .  S
C562        C563   1.378       .  A
C563        H565   1.082       .  S
N566        N567   1.324       .  A
N566        C570   1.340       .  A
N567        C568   1.352       .  A
C568        C569   1.389       .  A
C568        H571   1.082       .  S
C569       C1050   1.475       .  S
C569        C570   1.373       .  A
C570        H572   1.082       .  S
N573        N574   1.320       .  A
N573        C577   1.347       .  A
N573       Cu581   2.078       .  S
N574        C575   1.340       .  A
N574       Cu580   2.082       .  S
C575        C576   1.395       .  A
C575        H578   1.081       .  S
C576       C1034   1.508       .  S
C576        C577   1.395       .  A
C577        H579   1.074       .  S
Cu580       N583   2.081       .  S
Cu581       N591   2.077       .  S
Cu582       N584   2.047       .  S
Cu582       N590   2.047       .  S
N583        N584   1.320       .  A
N583        C587   1.347       .  A
N584        C585   1.340       .  A
C585        C586   1.378       .  A
C585        H588   1.082       .  S
C586        C926   1.466       .  S
C586        C587   1.386       .  A
C587        H589   1.082       .  S
N590        N591   1.321       .  A
N590        C594   1.340       .  A
N591        C592   1.346       .  A
C592        C593   1.384       .  A
C592        H595   1.081       .  S
C593       C1133   1.466       .  S
C593        C594   1.375       .  A
C594        H596   1.082       .  S
N597        N598   1.324       .  A
N597        C601   1.351       .  A
N597       Cu605   2.099       .  S
N598        C599   1.342       .  A
N598       Cu604   2.065       .  S
C599        C600   1.377       .  A
C599        H602   1.082       .  S
C600       C1018   1.476       .  S
C600        C601   1.387       .  A
C601        H603   1.082       .  S
Cu604       N607   2.064       .  S
Cu605       N615   2.100       .  S
Cu606       N608   2.054       .  S
Cu606       N614   2.055       .  S
N607        N608   1.320       .  A
N607        C611   1.344       .  A
N608        C609   1.341       .  A
C609        C610   1.379       .  A
C609        H612   1.082       .  S
C610        C854   1.463       .  S
C610        C611   1.382       .  A
C611        H613   1.082       .  S
N614        N615   1.322       .  A
N614        C618   1.343       .  A
N615        C616   1.347       .  A
C616        C617   1.389       .  A
C616        H619   1.077       .  S
C617       C1069   1.483       .  S
C617        C618   1.379       .  A
C618        H620   1.081       .  S
O621       Cu629   2.421   1_545  S
O621        C631   1.328       .  A
O622       Cu629   2.797   1_545  S
O622        C632   1.297       .  A
O623       Cu629   2.535   1_545  S
O623        C633   1.311       .  A
O624       Cu629   2.451   1_545  S
O624        C634   1.279       .  A
O625       Cu630   1.939       .  S
O625        C634   1.258       .  A
O626       Cu630   1.949       .  S
O626        C633   1.250       .  A
O627       Cu630   1.962       .  S
O627        C632   1.270       .  A
O628       Cu630   1.994       .  S
O628        C631   1.277       .  A
Cu629      Cu630   3.392   1_565  S
C631       C1053   1.507       .  S
C632       C1037   1.504       .  S
C633       C1002   1.480       .  S
C634       C1021   1.508       .  S
N635        N636   1.319       .  A
N635        C639   1.349       .  A
N635       Cu643   2.053       .  S
N636        C637   1.335       .  A
N636       Cu642   2.076       .  S
C637        C638   1.391       .  A
C637        H640   1.082       .  S
C638        C989   1.491       .  S
C638        C639   1.388       .  A
C639        H641   1.078       .  S
Cu642       N645   2.076       .  S
Cu643       N653   2.055       .  S
Cu644       N646   2.062       .  S
Cu644       N652   2.063       .  S
N645        N646   1.320       .  A
N645        C649   1.347       .  A
N646        C647   1.344       .  A
C647        C648   1.382       .  A
C647        H650   1.082       .  S
C648        C806   1.470       .  S
C648        C649   1.385       .  A
C649        H651   1.082       .  S
N652        N653   1.324       .  A
N652        C656   1.341       .  A
N653        C654   1.341       .  A
C654        C655   1.377       .  A
C654        H657   1.082       .  S
C655       C1581   1.462       .  S
C655        C656   1.377       .  A
C656        H658   1.082       .  S
N659        N660   1.322       .  A
N659        C663   1.345       .  A
N659       Cu667   2.075       .  S
N660        C661   1.342       .  A
N660       Cu666   2.064       .  S
C661        C662   1.380       .  A
C661        H664   1.082       .  S
C662        C970   1.469       .  S
C662        C663   1.384       .  A
C663        H665   1.082       .  S
Cu666       N669   2.063       .  S
Cu667       N677   2.074       .  S
Cu668       N670   2.070       .  S
Cu668       N676   2.072       .  S
N669        N670   1.320       .  A
N669        C673   1.342       .  A
N670        C671   1.346       .  A
C671        C672   1.384       .  A
C671        H674   1.082       .  S
C672        C782   1.468       .  S
C672        C673   1.382       .  A
C673        H675   1.082       .  S
N676        N677   1.321       .  A
N676        C680   1.339       .  A
N677        C678   1.348       .  A
C678        C679   1.389       .  A
C678        H681   1.078   1_655  S
C679       C1530   1.488       .  S
C679        C680   1.386       .  A
C680        H682   1.082       .  S
N683        N684   1.323       .  A
N683        C687   1.354       .  A
N683       Cu691   2.117       .  S
N684        C685   1.340       .  A
N684       Cu690   2.052       .  S
C685        C686   1.376       .  A
C685        H688   1.081       .  S
C686       C1005   1.485       .  S
C686        C687   1.394       .  A
C687        H689   1.082       .  S
Cu690       N693   2.051       .  S
Cu691       N701   2.117       .  S
Cu692       N694   2.051       .  S
Cu692       N700   2.052       .  S
N693        N694   1.318       .  A
N693        C697   1.341       .  A
N694        C695   1.344       .  A
C695        C696   1.381       .  A
C695        H698   1.082       .  S
C696        C748   1.461       .  S
C696        C697   1.381       .  A
C697        H699   1.082       .  S
N700        N701   1.324       .  A
N700        C704   1.338       .  A
N701        C702   1.354       .  A
C702        C703   1.396       .  A
C702        H705   1.080       .  S
C703        C954   1.487       .  S
C703        C704   1.376       .  A
C704        H706   1.082       .  S
N707        N708   1.322       .  A
N707        C711   1.350       .  A
N707       Cu715   2.091       .  S
N708        C709   1.342       .  A
N708       Cu714   2.068       .  S
C709        C710   1.381       .  A
C709        H712   1.082       .  S
C710       C1661   1.483       .  S
C710        C711   1.389       .  A
C711        H713   1.081       .  S
Cu714       N717   2.067       .  S
Cu715       N725   2.092       .  S
Cu716       N718   2.057       .  S
Cu716       N724   2.058       .  S
N717        N718   1.322       .  A
N717        C721   1.346       .  A
N718        C719   1.340       .  A
C719        C720   1.378       .  A
C719        H722   1.082       .  S
C720        C933   1.462       .  S
C720        C721   1.382       .  A
C721        H723   1.082       .  S
N724        N725   1.320       .  A
N724        C728   1.346       .  A
N725        C726   1.344       .  A
C726        C727   1.394       .  A
C726        H729   1.082       .  S
C727        C938   1.495       .  S
C727        C728   1.386       .  A
C728        H730   1.077       .  S
O731       Cu739   2.702   1_565  S
O731        C741   1.297       .  A
O732       Cu739   2.449       .  S
O732        C742   1.331   1_455  A
O733       Cu739   2.436   1_565  S
O733        C743   1.279       .  A
O734       Cu739   2.646       .  S
O734        C744   1.317       .  A
O735       Cu740   1.969   1_545  S
O735        C744   1.260       .  A
O736       Cu740   1.934       .  S
O736        C743   1.256       .  A
O737       Cu740   1.961   1_545  S
O737        C742   1.264   1_455  A
O738       Cu740   1.923       .  S
O738        C741   1.257       .  A
Cu739      Cu740   3.418   1_545  S
C741        C986   1.494       .  S
C742        C957   1.495       .  S
C743        C973   1.491       .  S
C744        C941   1.533       .  S
N745        N746   1.321       .  A
N745        C749   1.340       .  A
N745       Cu753   2.051       .  S
N746        C747   1.345       .  A
N746       Cu752   2.068       .  S
C747        C748   1.382       .  A
C747        H750   1.082       .  S
C748        C749   1.378       .  A
C749        H751   1.082       .  S
Cu752       N755   2.069       .  S
Cu753       N763   2.051       .  S
Cu754       N756   2.089       .  S
Cu754       N762   2.089       .  S
N755        N756   1.324       .  A
N755        C759   1.343       .  A
N756        C757   1.349       .  A
C757        C758   1.385       .  A
C757        H760   1.082       .  S
C758        C759   1.380       .  A
C759        H761   1.082       .  S
N762        N763   1.322       .  A
N762        C766   1.345       .  A
N763        C764   1.344       .  A
C764        C765   1.377       .  A
C764        H767   1.082       .  S
C765        C766   1.386       .  A
C766        H768   1.082       .  S
N769        N770   1.321       .  A
N769        C773   1.343       .  A
N769       Cu777   2.055       .  S
N770        C771   1.343       .  A
N770       Cu776   2.066       .  S
C771        C772   1.382       .  A
C771        H774   1.082       .  S
C772        C773   1.379       .  A
C773        H775   1.082       .  S
Cu776       N779   2.067       .  S
Cu777       N787   2.056       .  S
Cu778       N780   2.077       .  S
Cu778       N786   2.077       .  S
N779        N780   1.323       .  A
N779        C783   1.342       .  A
N780        C781   1.347       .  A
C781        C782   1.384       .  A
C781        H784   1.082       .  S
C782        C783   1.380       .  A
C783        H785   1.082       .  S
N786        N787   1.322       .  A
N786        C790   1.345       .  A
N787        C788   1.342       .  A
C788        C789   1.378       .  A
C788        H791   1.082       .  S
C789        C790   1.383       .  A
C790        H792   1.082       .  S
N793        N794   1.322       .  A
N793        C797   1.347       .  A
N793       Cu801   2.073       .  S
N794        C795   1.344       .  A
N794       Cu800   2.075       .  S
C795        C796   1.382       .  A
C795        H798   1.082       .  S
C796        C797   1.382       .  A
C797        H799   1.082       .  S
Cu800       N803   2.075       .  S
Cu801       N811   2.073       .  S
Cu802       N804   2.077       .  S
Cu802       N810   2.077       .  S
N803        N804   1.322       .  A
N803        C807   1.344       .  A
N804        C805   1.347       .  A
C805        C806   1.383       .  A
C805        H808   1.082       .  S
C806        C807   1.382       .  A
C807        H809   1.082       .  S
N810        N811   1.323       .  A
N810        C814   1.346       .  A
N811        C812   1.345       .  A
C812        C813   1.380       .  A
C812        H815   1.082       .  S
C813        C814   1.382       .  A
C814        H816   1.082       .  S
N817        N818   1.320       .  A
N817        C821   1.344       .  A
N817       Cu825   2.058       .  S
N818        C819   1.339       .  A
N818       Cu824   2.053       .  S
C819        C820   1.379       .  A
C819        H822   1.082       .  S
C820        C821   1.381       .  A
C821        H823   1.082       .  S
Cu824       N827   2.053       .  S
Cu825       N835   2.059       .  S
Cu826       N828   2.069       .  S
Cu826       N834   2.069       .  S
N827        N828   1.321       .  A
N827        C831   1.341       .  A
N828        C829   1.345       .  A
C829        C830   1.383       .  A
C829        H832   1.082       .  S
C830        C831   1.379       .  A
C831        H833   1.082       .  S
N834        N835   1.323       .  A
N834        C838   1.344       .  A
N835        C836   1.341       .  A
C836        C837   1.378       .  A
C836        H839   1.082       .  S
C837        C838   1.381       .  A
C838        H840   1.082       .  S
N841        N842   1.322       .  A
N841        C845   1.344       .  A
N841       Cu849   2.070       .  S
N842        C843   1.343       .  A
N842       Cu848   2.063       .  S
C843        C844   1.381       .  A
C843        H846   1.082       .  S
C844        C845   1.382       .  A
C845        H847   1.082       .  S
Cu848       N851   2.063       .  S
Cu849       N859   2.071       .  S
Cu850       N852   2.062       .  S
Cu850       N858   2.062       .  S
N851        N852   1.322       .  A
N851        C855   1.342       .  A
N852        C853   1.344       .  A
C853        C854   1.380       .  A
C853        H856   1.082       .  S
C854        C855   1.380       .  A
C855        H857   1.082       .  S
N858        N859   1.322       .  A
N858        C862   1.344       .  A
N859        C860   1.343       .  A
C860        C861   1.381       .  A
C860        H863   1.082       .  S
C861        C862   1.379       .  A
C862        H864   1.082       .  S
N865        N866   1.321       .  A
N865        C869   1.340       .  A
N865       Cu873   2.049       .  S
N866        C867   1.342       .  A
N866       Cu872   2.056       .  S
C867        C868   1.379       .  A
C867        H870   1.082       .  S
C868        C869   1.377       .  A
C869        H871   1.082       .  S
Cu872       N875   2.056       .  S
Cu873       N883   2.049       .  S
Cu874       N876   2.058       .  S
Cu874       N882   2.057       .  S
N875        N876   1.321       .  A
N875        C879   1.341       .  A
N876        C877   1.343       .  A
C877        C878   1.380       .  A
C877        H880   1.082       .  S
C878        C879   1.379       .  A
C879        H881   1.082       .  S
N882        N883   1.321       .  A
N882        C886   1.340       .  A
N883        C884   1.342       .  A
C884        C885   1.378       .  A
C884        H887   1.082       .  S
C885        C886   1.380       .  A
C886        H888   1.082       .  S
N889        N890   1.322       .  A
N889        C893   1.345       .  A
N889       Cu897   2.066       .  S
N890        C891   1.344       .  A
N890       Cu896   2.073       .  S
C891        C892   1.382       .  A
C891        H894   1.082       .  S
C892        C893   1.381       .  A
C893        H895   1.082       .  S
Cu896       N899   2.073       .  S
Cu897       N907   2.066       .  S
Cu898       N900   2.084       .  S
Cu898       N906   2.084       .  S
N899        N900   1.323       .  A
N899        C903   1.345       .  A
N900        C901   1.347       .  A
C901        C902   1.385       .  A
C901        H904   1.082       .  S
C902        C903   1.382       .  A
C903        H905   1.082       .  S
N906        N907   1.323       .  A
N906        C910   1.346       .  A
N907        C908   1.345       .  A
C908        C909   1.379       .  A
C908        H911   1.082       .  S
C909        C910   1.384       .  A
C910        H912   1.082       .  S
N913        N914   1.323       .  A
N913        C917   1.343       .  A
N913       Cu921   2.064       .  S
N914        C915   1.344       .  A
N914       Cu920   2.071       .  S
C915        C916   1.380       .  A
C915        H918   1.082       .  S
C916        C917   1.379       .  A
C917        H919   1.082       .  S
Cu920       N923   2.071       .  S
Cu921       N931   2.065       .  S
Cu922       N924   2.057       .  S
Cu922       N930   2.057       .  S
N923        N924   1.321       .  A
N923        C927   1.343       .  A
N924        C925   1.344       .  A
C925        C926   1.380       .  A
C925        H928   1.082       .  S
C926        C927   1.384       .  A
C927        H929   1.082       .  S
N930        N931   1.322       .  A
N930        C934   1.340       .  A
N931        C932   1.345       .  A
C932        C933   1.382       .  A
C932        H935   1.082       .  S
C933        C934   1.378       .  A
C934        H936   1.082       .  S
C937        C938   1.392       .  A
C937        C942   1.403       .  A
C937        H944   1.082       .  S
C938        C939   1.419       .  A
C939        C940   1.417       .  A
C939        C946   1.519       .  S
C940        C941   1.420       .  A
C940        H945   1.081       .  S
C941        C942   1.425       .  A
C942        C943   1.486       .  S
C943        F947   1.386       .  S
C943        F948   1.372       .  S
C943        F949   1.373       .  S
C946        F950   1.381       .  S
C946        F951   1.383       .  S
C946        F952   1.384       .  S
C953        C954   1.406       .  A
C953        C958   1.410       .  A
C953        H960   1.083       .  S
C954        C955   1.413       .  A
C955        C956   1.407       .  A
C955        C962   1.519       .  S
C956        C957   1.402       .  A
C956        H961   1.067       .  S
C957        C958   1.423       .  A
C958        C959   1.521       .  S
C959        F963   1.385       .  S
C959        F964   1.383       .  S
C959        F965   1.383       .  S
C962        F966   1.380       .  S
C962        F967   1.383       .  S
C962        F968   1.384       .  S
C969        C970   1.392   1_455  A
C969        C974   1.398       .  A
C969        H976   1.084       .  S
C970        C971   1.410       .  A
C971        C972   1.409       .  A
C971        C978   1.513       .  S
C972        C973   1.404   1_655  A
C972        H977   1.076       .  S
C973        C974   1.423       .  A
C974        C975   1.507       .  S
C975        F979   1.385       .  S
C975        F980   1.380       .  S
C975        F981   1.382       .  S
C978        F982   1.383       .  S
C978        F983   1.382       .  S
C978        F984   1.383       .  S
C985        C986   1.410       .  A
C985        C990   1.419       .  A
C985        H992   1.082   1_565  S
C986        C987   1.437       .  A
C987        C988   1.391       .  A
C987        C994   1.528       .  S
C988        C989   1.390       .  A
C988        H993   1.085       .  S
C989        C990   1.418       .  A
C990        C991   1.510   1_565  S
C991        F995   1.382       .  S
C991        F996   1.383       .  S
C991        F997   1.380   1_545  S
C994        F998   1.365       .  S
C994        F999   1.383       .  S
C994       F1000   1.386       .  S
C1001      C1002   1.400       .  A
C1001      C1006   1.407       .  A
C1001      H1008   1.084       .  S
C1002      C1003   1.417       .  A
C1003      C1004   1.411       .  A
C1003      C1010   1.516       .  S
C1004      C1005   1.404       .  A
C1004      H1009   1.083       .  S
C1005      C1006   1.421       .  A
C1006      C1007   1.520       .  S
C1007      F1011   1.385       .  S
C1007      F1012   1.383       .  S
C1007      F1013   1.380       .  S
C1010      F1014   1.379       .  S
C1010      F1015   1.383       .  S
C1010      F1016   1.384       .  S
C1017      C1018   1.397       .  A
C1017      C1022   1.410       .  A
C1017      H1024   1.085       .  S
C1018      C1019   1.408       .  A
C1019      C1020   1.405       .  A
C1019      C1026   1.518       .  S
C1020      C1021   1.413       .  A
C1020      H1025   1.082       .  S
C1021      C1022   1.432       .  A
C1022      C1023   1.511   1_545  S
C1023      F1027   1.380       .  S
C1023      F1028   1.364       .  S
C1023      F1029   1.384       .  S
C1026      F1030   1.383       .  S
C1026      F1031   1.383       .  S
C1026      F1032   1.385       .  S
C1033      C1034   1.403       .  A
C1033      C1038   1.403       .  A
C1033      H1040   1.079       .  S
C1034      C1035   1.424       .  A
C1035      C1036   1.416       .  A
C1035      C1042   1.514       .  S
C1036      C1037   1.406       .  A
C1036      H1041   1.082       .  S
C1037      C1038   1.431       .  A
C1038      C1039   1.528       .  S
C1039      F1043   1.385       .  S
C1039      F1044   1.383       .  S
C1039      F1045   1.382       .  S
C1042      F1046   1.382       .  S
C1042      F1047   1.383       .  S
C1042      F1048   1.378       .  S
C1049      C1050   1.395       .  A
C1049      C1054   1.411       .  A
C1049      H1056   1.085       .  S
C1050      C1051   1.407       .  A
C1051      C1052   1.403       .  A
C1051      C1058   1.520       .  S
C1052      C1053   1.416       .  A
C1052      H1057   1.082       .  S
C1053      C1054   1.440       .  A
C1054      C1055   1.523   1_545  S
C1055      F1059   1.384       .  S
C1055      F1060   1.365       .  S
C1055      F1061   1.384       .  S
C1058      F1062   1.382       .  S
C1058      F1063   1.383       .  S
C1058      F1064   1.385       .  S
C1065      C1066   1.404       .  A
C1065      C1070   1.410       .  A
C1065      H1072   1.080       .  S
C1066      C1067   1.426       .  A
C1067      C1068   1.407       .  A
C1067      C1074   1.521   1_545  S
C1068      C1069   1.399       .  A
C1068      H1073   1.083       .  S
C1069      C1070   1.417       .  A
C1070      C1071   1.518       .  S
C1071      F1075   1.385       .  S
C1071      F1076   1.384       .  S
C1071      F1077   1.381       .  S
C1074      F1078   1.382       .  S
C1074      F1079   1.383       .  S
C1074      F1080   1.385       .  S
C1081      C1082   1.398       .  A
C1081      C1086   1.402       .  A
C1081      H1088   1.084       .  S
C1082      C1083   1.419       .  A
C1083      C1084   1.410       .  A
C1083      C1090   1.517       .  S
C1084      C1085   1.401       .  A
C1084      H1089   1.083       .  S
C1085      C1086   1.423       .  A
C1086      C1087   1.522       .  S
C1087      F1091   1.385       .  S
C1087      F1092   1.379       .  S
C1087      F1093   1.383       .  S
C1090      F1094   1.383       .  S
C1090      F1095   1.381       .  S
C1090      F1096   1.382       .  S
C1097      C1098   1.396   1_655  A
C1097      C1102   1.399       .  A
C1097      H1104   1.085       .  S
C1098      C1099   1.415       .  A
C1099      C1100   1.416       .  A
C1099      C1106   1.513       .  S
C1100      C1101   1.408       .  A
C1100      H1105   1.083       .  S
C1101      C1102   1.424   1_455  A
C1102      C1103   1.509       .  S
C1103      F1107   1.384       .  S
C1103      F1108   1.370       .  S
C1103      F1109   1.382       .  S
C1106      F1110   1.385       .  S
C1106      F1111   1.381       .  S
C1106      F1112   1.384       .  S
C1113      C1114   1.400       .  A
C1113      C1118   1.402       .  A
C1113      H1120   1.083       .  S
C1114      C1115   1.417       .  A
C1115      C1116   1.411       .  A
C1115      C1122   1.518       .  S
C1116      C1117   1.407       .  A
C1116      H1121   1.083       .  S
C1117      C1118   1.424       .  A
C1118      C1119   1.523       .  S
C1119      F1123   1.385       .  S
C1119      F1124   1.381   1_565  S
C1119      F1125   1.383       .  S
C1122      F1126   1.381       .  S
C1122      F1127   1.383       .  S
C1122      F1128   1.385       .  S
C1129      C1130   1.410       .  A
C1129      C1134   1.405       .  A
C1129      H1136   1.082       .  S
C1130      C1131   1.431       .  A
C1131      C1132   1.404       .  A
C1131      C1138   1.524   1_545  S
C1132      C1133   1.395       .  A
C1132      H1137   1.083       .  S
C1133      C1134   1.407       .  A
C1134      C1135   1.516       .  S
C1135      F1139   1.384       .  S
C1135      F1140   1.382       .  S
C1135      F1141   1.382       .  S
C1138      F1142   1.384       .  S
C1138      F1143   1.384   1_565  S
C1138      F1144   1.385       .  S
C1145      C1146   1.393       .  A
C1145      C1150   1.407       .  A
C1145      H1152   1.083       .  S
C1146      C1147   1.410       .  A
C1147      C1148   1.406       .  A
C1147      C1154   1.520       .  S
C1148      C1149   1.419       .  A
C1148      H1153   1.081       .  S
C1149      C1150   1.425       .  A
C1150      C1151   1.496       .  S
C1151      F1155   1.385       .  S
C1151      F1156   1.370       .  S
C1151      F1157   1.368       .  S
C1154      F1158   1.382       .  S
C1154      F1159   1.383       .  S
C1154      F1160   1.384       .  S
C1161      C1162   1.405       .  A
C1161      C1166   1.406       .  A
C1161      H1168   1.076       .  S
C1162      C1163   1.415   1_556  A
C1163      C1164   1.410   1_554  A
C1163      C1170   1.516       .  S
C1164      C1165   1.403       .  A
C1164      H1169   1.083       .  S
C1165      C1166   1.412       .  A
C1166      C1167   1.519       .  S
C1167      F1171   1.384       .  S
C1167      F1172   1.382       .  S
C1167      F1173   1.383       .  S
C1170      F1174   1.382       .  S
C1170      F1175   1.382       .  S
C1170      F1176   1.384       .  S
C1177      C1178   1.398       .  A
C1177      C1182   1.405       .  A
C1177      H1184   1.083       .  S
C1178      C1179   1.416       .  A
C1179      C1180   1.408       .  A
C1179      C1186   1.516       .  S
C1180      C1181   1.400       .  A
C1180      H1185   1.083       .  S
C1181      C1182   1.423       .  A
C1182      C1183   1.523   1_554  S
C1183      F1187   1.385       .  S
C1183      F1188   1.383       .  S
C1183      F1189   1.383       .  S
C1186      F1190   1.384       .  S
C1186      F1191   1.381       .  S
C1186      F1192   1.384       .  S
C1193      C1194   1.410       .  A
C1193      C1198   1.405       .  A
C1193      H1200   1.081       .  S
C1194      C1195   1.438       .  A
C1195      C1196   1.407       .  A
C1195      C1202   1.520       .  S
C1196      C1197   1.394       .  A
C1196      H1201   1.086       .  S
C1197      C1198   1.414       .  A
C1198      C1199   1.520       .  S
C1199      F1203   1.385       .  S
C1199      F1204   1.381       .  S
C1199      F1205   1.383       .  S
C1202      F1206   1.383       .  S
C1202      F1207   1.366       .  S
C1202      F1208   1.382       .  S
C1209      C1210   1.407       .  A
C1209      C1214   1.404       .  A
C1209      H1216   1.082       .  S
C1210      C1211   1.422       .  A
C1211      C1212   1.414       .  A
C1211      C1218   1.515   1_565  S
C1212      C1213   1.401       .  A
C1212      H1217   1.083   1_565  S
C1213      C1214   1.415       .  A
C1214      C1215   1.520       .  S
C1215      F1219   1.385       .  S
C1215      F1220   1.382       .  S
C1215      F1221   1.376       .  S
C1218      F1222   1.382       .  S
C1218      F1223   1.383       .  S
C1218      F1224   1.381       .  S
C1225      C1226   1.406       .  A
C1225      C1230   1.400       .  A
C1225      H1232   1.082       .  S
C1226      C1227   1.420       .  A
C1227      C1228   1.411       .  A
C1227      C1234   1.516   1_556  S
C1228      C1229   1.401       .  A
C1228      H1233   1.077   1_556  S
C1229      C1230   1.421       .  A
C1230      C1231   1.522       .  S
C1231      F1235   1.383       .  S
C1231      F1236   1.378       .  S
C1231      F1237   1.383       .  S
C1234      F1238   1.383       .  S
C1234      F1239   1.380       .  S
C1234      F1240   1.382       .  S
C1241      C1242   1.399       .  A
C1241      C1246   1.410       .  A
C1241      H1248   1.083       .  S
C1242      C1243   1.416       .  A
C1243      C1244   1.417       .  A
C1243      C1250   1.515       .  S
C1244      C1245   1.408       .  A
C1244      H1249   1.080       .  S
C1245      C1246   1.426       .  A
C1246      C1247   1.519   1_554  S
C1247      F1251   1.385       .  S
C1247      F1252   1.380       .  S
C1247      F1253   1.383   1_556  S
C1250      F1254   1.382       .  S
C1250      F1255   1.383       .  S
C1250      F1256   1.384       .  S
C1257      C1258   1.421       .  A
C1257      C1262   1.403       .  A
C1257      H1264   1.082       .  S
C1258      C1259   1.442       .  A
C1259      C1260   1.406       .  A
C1259      C1266   1.509   1_556  S
C1260      C1261   1.392       .  A
C1260      H1265   1.086       .  S
C1261      C1262   1.404       .  A
C1262      C1263   1.519       .  S
C1263      F1267   1.385       .  S
C1263      F1268   1.383       .  S
C1263      F1269   1.383       .  S
C1266      F1270   1.380   1_554  S
C1266      F1271   1.359       .  S
C1266      F1272   1.385       .  S
C1273      C1274   1.403       .  A
C1273      C1278   1.418       .  A
C1273      H1280   1.083       .  S
C1274      C1275   1.420       .  A
C1275      C1276   1.399       .  A
C1275      C1282   1.518       .  S
C1276      C1277   1.402       .  A
C1276      H1281   1.082       .  S
C1277      C1278   1.426       .  A
C1278      C1279   1.516       .  S
C1279      F1283   1.385       .  S
C1279      F1284   1.383       .  S
C1279      F1285   1.381       .  S
C1282      F1286   1.382       .  S
C1282      F1287   1.372       .  S
C1282      F1288   1.385       .  S
C1289      C1290   1.386       .  A
C1289      C1294   1.400       .  A
C1289      H1296   1.087       .  S
C1290      C1291   1.415       .  A
C1291      C1292   1.416       .  A
C1291      C1298   1.517       .  S
C1292      C1293   1.416       .  A
C1292      H1297   1.083       .  S
C1293      C1294   1.437       .  A
C1294      C1295   1.499   1_556  S
C1295      F1299   1.380       .  S
C1295      F1300   1.379       .  S
C1295      F1301   1.357       .  S
C1298      F1302   1.381       .  S
C1298      F1303   1.383       .  S
C1298      F1304   1.385       .  S
C1305      C1306   1.404       .  A
C1305      C1310   1.412       .  A
C1305      H1312   1.078       .  S
C1306      C1307   1.414       .  A
C1307      C1308   1.402       .  A
C1307      C1314   1.519       .  S
C1308      C1309   1.411       .  A
C1308      H1313   1.079       .  S
C1309      C1310   1.425       .  A
C1310      C1311   1.518       .  S
C1311      F1315   1.384       .  S
C1311      F1316   1.383       .  S
C1311      F1317   1.382   1_556  S
C1314      F1318   1.383       .  S
C1314      F1319   1.378       .  S
C1314      F1320   1.385       .  S
C1321      C1322   1.404       .  A
C1321      C1326   1.407       .  A
C1321      H1328   1.078       .  S
C1322      C1323   1.421       .  A
C1323      C1324   1.411       .  A
C1323      C1330   1.516   1_556  S
C1324      C1325   1.402       .  A
C1324      H1329   1.085       .  S
C1325      C1326   1.413       .  A
C1326      C1327   1.518       .  S
C1327      F1331   1.383       .  S
C1327      F1332   1.383       .  S
C1327      F1333   1.382       .  S
C1330      F1334   1.384       .  S
C1330      F1335   1.377       .  S
C1330      F1336   1.383       .  S
C1337      C1338   1.403       .  A
C1337      C1342   1.412       .  A
C1337      H1344   1.072       .  S
C1338      C1339   1.436       .  A
C1339      C1340   1.415       .  A
C1339      C1346   1.516       .  S
C1340      C1341   1.396       .  A
C1340      H1345   1.084       .  S
C1341      C1342   1.414       .  A
C1342      C1343   1.523       .  S
C1343      F1347   1.381       .  S
C1343      F1348   1.379       .  S
C1343      F1349   1.383       .  S
C1346      F1350   1.375       .  S
C1346      F1351   1.382       .  S
C1346      F1352   1.385   1_455  S
C1353      C1354   1.397       .  A
C1353      C1358   1.412       .  A
C1353      H1360   1.085   1_455  S
C1354      C1355   1.411       .  A
C1355      C1356   1.407       .  A
C1355      C1362   1.519       .  S
C1356      C1357   1.414       .  A
C1356      H1361   1.083       .  S
C1357      C1358   1.435       .  A
C1358      C1359   1.513       .  S
C1359      F1363   1.384       .  S
C1359      F1364   1.383   1_455  S
C1359      F1365   1.362       .  S
C1362      F1366   1.382       .  S
C1362      F1367   1.383       .  S
C1362      F1368   1.385       .  S
C1369      C1370   1.393       .  A
C1369      C1374   1.411       .  A
C1369      H1376   1.085       .  S
C1370      C1371   1.411       .  A
C1371      C1372   1.406       .  A
C1371      C1378   1.521       .  S
C1372      C1373   1.417       .  A
C1372      H1377   1.083       .  S
C1373      C1374   1.438       .  A
C1374      C1375   1.510       .  S
C1375      F1379   1.384       .  S
C1375      F1380   1.367       .  S
C1375      F1381   1.379       .  S
C1378      F1382   1.380       .  S
C1378      F1383   1.384       .  S
C1378      F1384   1.385       .  S
C1385      C1386   1.397       .  A
C1385      C1390   1.409       .  A
C1385      H1392   1.085       .  S
C1386      C1387   1.412       .  A
C1387      C1388   1.399       .  A
C1387      C1394   1.523       .  S
C1388      C1389   1.414       .  A
C1388      H1393   1.082       .  S
C1389      C1390   1.434       .  A
C1390      C1391   1.514       .  S
C1391      F1395   1.385       .  S
C1391      F1396   1.363       .  S
C1391      F1397   1.381       .  S
C1394      F1398   1.381       .  S
C1394      F1399   1.383       .  S
C1394      F1400   1.385       .  S
C1401      C1402   1.391       .  A
C1401      C1406   1.396       .  A
C1401      H1408   1.084   1_455  S
C1402      C1403   1.411       .  A
C1403      C1404   1.414       .  A
C1403      C1410   1.513       .  S
C1404      C1405   1.408       .  A
C1404      H1409   1.083       .  S
C1405      C1406   1.417       .  A
C1406      C1407   1.496   1_455  S
C1407      F1411   1.385       .  S
C1407      F1412   1.377       .  S
C1407      F1413   1.373       .  S
C1410      F1414   1.383       .  S
C1410      F1415   1.383       .  S
C1410      F1416   1.384       .  S
C1417      C1418   1.409       .  A
C1417      C1422   1.415       .  A
C1417      H1424   1.081       .  S
C1418      C1419   1.425       .  A
C1419      C1420   1.402       .  A
C1419      C1426   1.522       .  S
C1420      C1421   1.402       .  A
C1420      H1425   1.085       .  S
C1421      C1422   1.418       .  A
C1422      C1423   1.516       .  S
C1423      F1427   1.384       .  S
C1423      F1428   1.382       .  S
C1423      F1429   1.383       .  S
C1426      F1430   1.383       .  S
C1426      F1431   1.374       .  S
C1426      F1432   1.384       .  S
C1433      C1434   1.416       .  A
C1433      C1438   1.410       .  A
C1433      H1440   1.075   1_554  S
C1434      C1435   1.418       .  A
C1435      C1436   1.407       .  A
C1435      C1442   1.486       .  S
C1436      C1437   1.390       .  A
C1436      H1441   1.084       .  S
C1437      C1438   1.405       .  A
C1438      C1439   1.515   1_554  S
C1439      F1443   1.384       .  S
C1439      F1444   1.382       .  S
C1439      F1445   1.384       .  S
C1442      F1446   1.382       .  S
C1442      F1447   1.376       .  S
C1442      F1448   1.382       .  S
C1449      C1450   1.393       .  A
C1449      C1454   1.408       .  A
C1449      H1456   1.085       .  S
C1450      C1451   1.409       .  A
C1451      C1452   1.403       .  A
C1451      C1458   1.520       .  S
C1452      C1453   1.412       .  A
C1452      H1457   1.082       .  S
C1453      C1454   1.450       .  A
C1454      C1455   1.529   1_554  S
C1455      F1459   1.380       .  S
C1455      F1460   1.360       .  S
C1455      F1461   1.380       .  S
C1458      F1462   1.380       .  S
C1458      F1463   1.384       .  S
C1458      F1464   1.385       .  S
C1465      C1466   1.410       .  A
C1465      C1470   1.425       .  A
C1465      H1472   1.076       .  S
C1466      C1467   1.418       .  A
C1467      C1468   1.397       .  A
C1467      C1474   1.493       .  S
C1468      C1469   1.390       .  A
C1468      H1473   1.082       .  S
C1469      C1470   1.419       .  A
C1470      C1471   1.513       .  S
C1471      F1475   1.383       .  S
C1471      F1476   1.383       .  S
C1471      F1477   1.382       .  S
C1474      F1478   1.381       .  S
C1474      F1479   1.378       .  S
C1474      F1480   1.385       .  S
C1481      C1482   1.408       .  A
C1481      C1486   1.414       .  A
C1481      H1488   1.080       .  S
C1482      C1483   1.421       .  A
C1483      C1484   1.407       .  A
C1483      C1490   1.507       .  S
C1484      C1485   1.397       .  A
C1484      H1489   1.083       .  S
C1485      C1486   1.417       .  A
C1486      C1487   1.517       .  S
C1487      F1491   1.384       .  S
C1487      F1492   1.383       .  S
C1487      F1493   1.381       .  S
C1490      F1494   1.382       .  S
C1490      F1495   1.382       .  S
C1490      F1496   1.384       .  S
C1497      C1498   1.391       .  A
C1497      C1502   1.398       .  A
C1497      H1504   1.081       .  S
C1498      C1499   1.425       .  A
C1499      C1500   1.420       .  A
C1499      C1506   1.516       .  S
C1500      C1501   1.407       .  A
C1500      H1505   1.071       .  S
C1501      C1502   1.414       .  A
C1502      C1503   1.470       .  S
C1503      F1507   1.386       .  S
C1503      F1508   1.368   1_554  S
C1503      F1509   1.373       .  S
C1506      F1510   1.383       .  S
C1506      F1511   1.382       .  S
C1506      F1512   1.383       .  S
C1513      C1514   1.397   1_455  A
C1513      C1518   1.409       .  A
C1513      H1520   1.083       .  S
C1514      C1515   1.409       .  A
C1515      C1516   1.408       .  A
C1515      C1522   1.519       .  S
C1516      C1517   1.414   1_655  A
C1516      H1521   1.082       .  S
C1517      C1518   1.428       .  A
C1518      C1519   1.513       .  S
C1519      F1523   1.385       .  S
C1519      F1524   1.377       .  S
C1519      F1525   1.377       .  S
C1522      F1526   1.382       .  S
C1522      F1527   1.382       .  S
C1522      F1528   1.385       .  S
C1529      C1530   1.401   1_455  A
C1529      C1534   1.396       .  A
C1529      H1536   1.085   1_455  S
C1530      C1531   1.423   1_655  A
C1531      C1532   1.414       .  A
C1531      C1538   1.518   1_455  S
C1532      C1533   1.403       .  A
C1532      H1537   1.083       .  S
C1533      C1534   1.418       .  A
C1534      C1535   1.518       .  S
C1535      F1539   1.382   1_455  S
C1535      F1540   1.375       .  S
C1535      F1541   1.384       .  S
C1538      F1542   1.383       .  S
C1538      F1543   1.379   1_655  S
C1538      F1544   1.385       .  S
C1545      C1546   1.411       .  A
C1545      C1550   1.401   1_455  A
C1545      H1552   1.080   1_455  S
C1546      C1547   1.414       .  A
C1547      C1548   1.407       .  A
C1547      C1554   1.497       .  S
C1548      C1549   1.399       .  A
C1548      H1553   1.083       .  S
C1549      C1550   1.407   1_455  A
C1550      C1551   1.519       .  S
C1551      F1555   1.384       .  S
C1551      F1556   1.383       .  S
C1551      F1557   1.382       .  S
C1554      F1558   1.376       .  S
C1554      F1559   1.380       .  S
C1554      F1560   1.384       .  S
C1561      C1562   1.403       .  A
C1561      C1566   1.407       .  A
C1561      H1568   1.084   1_655  S
C1562      C1563   1.420       .  A
C1563      C1564   1.409       .  A
C1563      C1570   1.516       .  S
C1564      C1565   1.403       .  A
C1564      H1569   1.084       .  S
C1565      C1566   1.418       .  A
C1566      C1567   1.520   1_655  S
C1567      F1571   1.384       .  S
C1567      F1572   1.383       .  S
C1567      F1573   1.381   1_455  S
C1570      F1574   1.383       .  S
C1570      F1575   1.379       .  S
C1570      F1576   1.383       .  S
C1577      C1578   1.417       .  A
C1577      C1582   1.396       .  A
C1577      H1584   1.080       .  S
C1578      C1579   1.430       .  A
C1579      C1580   1.406       .  A
C1579      C1586   1.510   1_565  S
C1580      C1581   1.396       .  A
C1580      H1585   1.085       .  S
C1581      C1582   1.404       .  A
C1582      C1583   1.522       .  S
C1583      F1587   1.385       .  S
C1583      F1588   1.383       .  S
C1583      F1589   1.382       .  S
C1586      F1590   1.382   1_545  S
C1586      F1591   1.362       .  S
C1586      F1592   1.385       .  S
C1593      C1594   1.418       .  A
C1593      C1598   1.407       .  A
C1593      H1600   1.082       .  S
C1594      C1595   1.423       .  A
C1595      C1596   1.406       .  A
C1595      C1602   1.490       .  S
C1596      C1597   1.397       .  A
C1596      H1601   1.082       .  S
C1597      C1598   1.414       .  A
C1598      C1599   1.519       .  S
C1599      F1603   1.384       .  S
C1599      F1604   1.383       .  S
C1599      F1605   1.383       .  S
C1602      F1606   1.370   1_565  S
C1602      F1607   1.374       .  S
C1602      F1608   1.385   1_565  S
C1609      C1610   1.400       .  A
C1609      C1614   1.409       .  A
C1609      H1616   1.075       .  S
C1610      C1611   1.425       .  A
C1611      C1612   1.406       .  A
C1611      C1618   1.518       .  S
C1612      C1613   1.398       .  A
C1612      H1617   1.083       .  S
C1613      C1614   1.420       .  A
C1614      C1615   1.519       .  S
C1615      F1619   1.383       .  S
C1615      F1620   1.383       .  S
C1615      F1621   1.380       .  S
C1618      F1622   1.378       .  S
C1618      F1623   1.382       .  S
C1618      F1624   1.385       .  S
C1625      C1626   1.413       .  A
C1625      C1630   1.401       .  A
C1625      H1632   1.083       .  S
C1626      C1627   1.437       .  A
C1627      C1628   1.407       .  A
C1627      C1634   1.518   1_565  S
C1628      C1629   1.394       .  A
C1628      H1633   1.085       .  S
C1629      C1630   1.407       .  A
C1630      C1631   1.520       .  S
C1631      F1635   1.384       .  S
C1631      F1636   1.381       .  S
C1631      F1637   1.383       .  S
C1634      F1638   1.383       .  S
C1634      F1639   1.362       .  S
C1634      F1640   1.381       .  S
C1641      C1642   1.400       .  A
C1641      C1646   1.408       .  A
C1641      H1648   1.071       .  S
C1642      C1643   1.412       .  A
C1643      C1644   1.408       .  A
C1643      C1650   1.507       .  S
C1644      C1645   1.408       .  A
C1644      H1649   1.083       .  S
C1645      C1646   1.419       .  A
C1646      C1647   1.520       .  S
C1647      F1651   1.382       .  S
C1647      F1652   1.383       .  S
C1647      F1653   1.380       .  S
C1650      F1654   1.382       .  S
C1650      F1655   1.372       .  S
C1650      F1656   1.384       .  S
C1657      C1658   1.403       .  A
C1657      C1662   1.412       .  A
C1657      H1664   1.076       .  S
C1658      C1659   1.422       .  A
C1659      C1660   1.405       .  A
C1659      C1666   1.519       .  S
C1660      C1661   1.400       .  A
C1660      H1665   1.084       .  S
C1661      C1662   1.415       .  A
C1662      C1663   1.517       .  S
C1663      F1667   1.382       .  S
C1663      F1668   1.380       .  S
C1663      F1669   1.383       .  S
C1666      F1670   1.383       .  S
C1666      F1671   1.382       .  S
C1666      F1672   1.385       .  S
C1673      C1674   1.404       .  A
C1673      C1678   1.414       .  A
C1673      H1680   1.081       .  S
C1674      C1675   1.411       .  A
C1675      C1676   1.405       .  A
C1675      C1682   1.508       .  S
C1676      C1677   1.406       .  A
C1676      H1681   1.082       .  S
C1677      C1678   1.421       .  A
C1678      C1679   1.515       .  S
C1679      F1683   1.384       .  S
C1679      F1684   1.383       .  S
C1679      F1685   1.379       .  S
C1682      F1686   1.383       .  S
C1682      F1687   1.375       .  S
C1682      F1688   1.384       .  S
C1689      C1690   1.425       .  A
C1689      C1694   1.414       .  A
C1689      H1696   1.081       .  S
C1690      C1691   1.444       .  A
C1691      C1692   1.404       .  A
C1691      C1698   1.491       .  S
C1692      C1693   1.388       .  A
C1692      H1697   1.086       .  S
C1693      C1694   1.414       .  A
C1694      C1695   1.519       .  S
C1695      F1699   1.385       .  S
C1695      F1700   1.382       .  S
C1695      F1701   1.383       .  S
C1698      F1702   1.335       .  S
C1698      F1703   1.383       .  S
C1698      F1704   1.385       .  S
