geometry optimzed in LAMMPS
_audit_creation_date              2020-11-30 
_audit_creation_method            'lammps2cif' 
_symmetry_space_group_name_H-M    'P1' 
_symmetry_Int_Tables_number       1 
_symmetry_cell_setting            triclinic 
loop_ 
_symmetry_equiv_pos_as_xyz 
  x,y,z 
_cell_length_a                    41.64673807 
_cell_length_b                    45.670468549207996 
_cell_length_c                    32.425625986898865 
_cell_angle_alpha                 89.58509753156883 
_cell_angle_beta                  89.03120113307973 
_cell_angle_gamma                 89.94095696205254 
loop_ 
_atom_site_label 
_atom_site_type_symbol 
_atom_site_fract_x 
_atom_site_fract_y 
_atom_site_fract_z 
_atom_site_charge 
O1          O  0.48265251  0.03977812  0.94899515    -0.88200
C2          C  0.44515748  0.45839447  0.96535292     0.87900
Mg3        Mg  0.03179582  0.04626215  0.92905032     1.58100
O4          O  0.45814391  0.49661103  0.05722870    -0.87900
O5          O  0.44885264  0.05141103  0.99888395    -0.75200
C6          C  0.11422700  0.46130118  0.05581928     0.92900
O7          O  0.50026292  0.48067856  0.90066120    -0.75000
O8          O  0.11600468  0.47137301  0.01913608    -0.82500
Mg9        Mg  0.45575997  0.00944295  0.91306319     1.58000
C10         C  0.00319525  0.45493544  0.15538302     0.92800
O11         O  0.41006607  0.03660642  0.91818650    -0.80800
H12         H  0.45045750  0.03186949  0.09202975    -0.06200
C13         C  0.02879127  0.43917873  0.02324936     0.87800
O14         O  0.04648213  0.05527075  0.99582993    -0.75300
O15         O  0.44397565  0.48534692  0.96799968    -0.88100
O16         O  0.47920390  0.45179816  0.13189345    -0.80900
C17         C  0.38980023  0.44911728  0.06414818     0.93000
C18         C  0.38418477  0.03869862  0.93928638     0.92800
Mg19       Mg  0.04191916  0.48984132  0.08131540     1.58000
O20         O  0.08898624  0.46404866  0.07819409    -0.80800
O21         O  0.99664883  0.01773794  0.09120120    -0.75100
O22         O  0.38774763  0.47028209  0.03816072    -0.80900
O23         O  0.46714906  0.03505317  0.85529432    -0.82600
O24         O  0.10929570  0.02510326  0.95530307    -0.80900
C25         C  0.46744843  0.01571905  0.08090952     0.87200
O26         O  0.05373044  0.01243324  0.02480527    -0.88100
O27         O  0.01653900  0.45822055  0.04537842    -0.88200
O28         O  0.04931757  0.44542711  0.99520723    -0.75200
Mg29       Mg  0.42045659  0.00957910  0.01669230     1.58000
O30         O  0.41656263  0.44165246  0.07916709    -0.82600
H31         H  0.47869581  0.08062215  0.97035641    -0.06300
O32         O  0.03918664  0.00004031  0.93578783    -0.87900
H33         H  0.04605958  0.46535376  0.89951784    -0.06200
H34         H  0.06156470  0.04986950  0.05460120    -0.06300
C35         C  0.02946841  0.48159560  0.91134377     0.87200
C36         C  0.47039812  0.05821887  0.97220898     0.87800
C37         C  0.05455438  0.03944834  0.02631185     0.87900
H38         H  0.02085477  0.41675487  0.02678886    -0.06300
O39         O  0.45458779  0.44245922  0.99501569    -0.75300
Mg40       Mg  0.07667518  0.48701662  0.97669174     1.58000
H41         H  0.43904284  0.44819231  0.93654842    -0.06300
C42         C  0.49345794  0.04426655  0.83979058     0.92800
O43         O  0.08377806  0.05295002  0.90938610    -0.82600
C44         C  0.10929453  0.04466735  0.92707680     0.92900
O45         O  0.38090398  0.02625741  0.97443558    -0.82500
Mg46       Mg  0.46780945  0.45053331  0.06243773     1.58200
O47         O  0.01954637  0.04371860  0.85976604    -0.80900
O48         O  0.02931726  0.46624903  0.14183505    -0.82600
C49         C  0.49792919  0.09680531  0.64493144     0.45600
H50         H  0.99733381  0.07248589  0.64611926    -0.03400
C51         C  0.49956242  0.15378347  0.64220084     0.45700
H52         H  0.50093158  0.17790232  0.63957734    -0.03400
C53         C  0.49617347  0.11127124  0.68777973    -0.17100
C54         C  0.02848436  0.10921827  0.62426240    -0.16800
C55         C  0.46982278  0.11020104  0.62155725    -0.17200
C56         C  0.99806008  0.14166748  0.68687493    -0.17200
C57         C  0.02919204  0.13916046  0.62264203    -0.16700
C58         C  0.47068941  0.14021532  0.61980880    -0.17100
O59         O  0.01272566  0.29349359  0.04361020    -0.88200
C60         C  0.05140407  0.21168450  0.03646119     0.87900
Mg61       Mg  0.46320420  0.30060961  0.06176062     1.58100
O62         O  0.03887614  0.24563222  0.94063884    -0.87900
O63         O  0.04676454  0.30305496  0.99292289    -0.75200
C64         C  0.38288667  0.21007133  0.94182587     0.92900
O65         O  0.99478060  0.23597773  0.09626064    -0.75000
O66         O  0.38039361  0.22258021  0.97666764    -0.82500
Mg67       Mg  0.03949448  0.26436311  0.08245798     1.58000
C68         C  0.49681125  0.19945636  0.84661155     0.92800
O69         O  0.08581008  0.29120578  0.07570899    -0.80800
H70         H  0.04717197  0.27892682  0.90158091    -0.06200
C71         C  0.46788665  0.18970368  0.97931282     0.87800
O72         O  0.44946757  0.30664148  0.99366497    -0.75300
O73         O  0.05220093  0.23841076  0.03047549    -0.88100
O74         O  0.02005929  0.19752089  0.87148665    -0.80900
C75         C  0.10813447  0.19947132  0.93980392     0.93000
C76         C  0.11185372  0.29259882  0.05452792     0.92800
Mg77       Mg  0.45583043  0.23729339  0.91513759     1.58000
O78         O  0.40878130  0.21142577  0.92029739    -0.80800
O79         O  0.50098904  0.26487369  0.90297543    -0.75100
O80         O  0.10964261  0.22188403  0.96302768    -0.80900
O81         O  0.02697631  0.29114154  0.13803103    -0.82600
O82         O  0.38528393  0.27882491  0.03533970    -0.80900
C83         C  0.02999579  0.26342049  0.91425148     0.87200
O84         O  0.44288026  0.26272339  0.96868052    -0.88100
O85         O  0.48070609  0.20755241  0.95541679    -0.88200
O86         O  0.44661723  0.19735548  0.00559929    -0.75200
Mg87       Mg  0.07590411  0.26094496  0.97987849     1.58000
O88         O  0.08150010  0.19011777  0.92658191    -0.82600
H89         H  0.01643452  0.33325763  0.01775609    -0.06300
O90         O  0.45579943  0.25425847  0.05946242    -0.87900
H91         H  0.44906158  0.22055578  0.09835176    -0.06200
H92         H  0.43563709  0.29890764  0.93498784    -0.06300
C93         C  0.46558634  0.23652366  0.08539191     0.87200
C94         C  0.02497804  0.31089966  0.01853329     0.87800
C95         C  0.44210867  0.28962842  0.96447083     0.87900
H96         H  0.47582419  0.16715957  0.97880427    -0.06300
O97         O  0.04210132  0.19418232  0.00895468    -0.75300
Mg98       Mg  0.41885447  0.23974949  0.01877287     1.58000
H99         H  0.05751174  0.20310718  0.06648912    -0.06300
C100        C  0.50066972  0.30104697  0.15258508     0.92800
O101        O  0.41075247  0.30764357  0.07945907    -0.82600
C102        C  0.38515246  0.29892641  0.06247667     0.92900
O103        O  0.11499222  0.27918829  0.02046000    -0.82500
Mg104      Mg  0.02986613  0.19925819  0.94079982     1.58200
O105        O  0.47493128  0.30104712  0.13176285    -0.80900
O106        O  0.47006019  0.21098840  0.85739818    -0.82600
C107        C  0.50727203  0.40313571  0.35513669     0.45600
H108        H  0.00868822  0.42740188  0.35652727    -0.03400
C109        C  0.50320449  0.34622304  0.35154914     0.45700
H110        H  0.50089085  0.32203484  0.35002580    -0.03400
C111        C  0.50703381  0.39148874  0.31089296    -0.17100
C112        C  0.03532112  0.38695659  0.37593719    -0.16800
C113        C  0.47662051  0.39063441  0.37558854    -0.17200
C114        C  0.00512081  0.36145851  0.30893883    -0.17200
C115        C  0.03290650  0.35682875  0.37470811    -0.16700
C116        C  0.47466612  0.36074701  0.37383521    -0.17100
O117        O  0.26839142  0.04059887  0.54488267    -0.88200
C118        C  0.30867273  0.45983344  0.52930641     0.87900
Mg119      Mg  0.21948368  0.04733317  0.56396861     1.58100
O120        O  0.29092204  0.49776233  0.43752906    -0.87900
O121        O  0.30108328  0.05315697  0.49420068    -0.75200
C122        C  0.13634272  0.45541284  0.44970897     0.92900
O123        O  0.25207001  0.48180432  0.59595261    -0.75000
O124        O  0.13362852  0.46775136  0.48466478    -0.82500
Mg125      Mg  0.29601053  0.01081115  0.58199312     1.58000
C126        C  0.24316597  0.45354514  0.34430587     0.92800
O127        O  0.34199330  0.03781264  0.57487799    -0.80800
H128        H  0.29492537  0.03318677  0.40111222    -0.06200
C129        C  0.22428333  0.43841662  0.47896744     0.87800
O130        O  0.20379254  0.05420451  0.49735413    -0.75300
O131        O  0.30759091  0.48682434  0.52662571    -0.88100
O132        O  0.26962625  0.45323894  0.36364403    -0.80900
C133        C  0.36185929  0.45321014  0.42743797     0.93000
C134        C  0.36739095  0.04026041  0.55259678     0.92800
Mg135      Mg  0.20634214  0.48665524  0.41936025     1.58000
O136        O  0.16153511  0.45832591  0.42725322    -0.80800
O137        O  0.24979803  0.01650822  0.40505589    -0.75100
O138        O  0.36270726  0.47334082  0.45463180    -0.80900
O139        O  0.28397987  0.03613228  0.64135356    -0.82600
O140        O  0.14032092  0.02378569  0.54470152    -0.80900
C141        C  0.27945857  0.01627987  0.41383655     0.87200
O142        O  0.19499543  0.01034964  0.47372845    -0.88100
O143        O  0.23514036  0.45707379  0.45462908    -0.88200
O144        O  0.20335921  0.44472355  0.50655570    -0.75200
Mg145      Mg  0.32940313  0.01169853  0.47640294     1.58000
O146        O  0.33554511  0.44471138  0.41210670    -0.82600
H147        H  0.27161771  0.08178809  0.52393752    -0.06300
O148        O  0.21193338  0.00074461  0.56198099    -0.87900
H149        H  0.20652009  0.46619710  0.59966383    -0.06200
H150        H  0.18619668  0.04642730  0.44054712    -0.06300
C151        C  0.22256291  0.48256183  0.58668942     0.87200
C152        C  0.28010341  0.05946887  0.52162838     0.87800
C153        C  0.19414679  0.03721327  0.46943828     0.87900
H154        H  0.23340748  0.41627285  0.47737882    -0.06300
O155        O  0.30021736  0.44357144  0.49976361    -0.75300
Mg156      Mg  0.17382196  0.48572414  0.52407555     1.58000
H157        H  0.31633682  0.44980895  0.55780273    -0.06300
C158        C  0.25741005  0.04655143  0.65475467     0.92800
O159        O  0.16784425  0.05503541  0.58297964    -0.82600
C160        C  0.14142113  0.04558420  0.56910113     0.92900
O161        O  0.36962784  0.02849594  0.51714166    -0.82500
Mg162      Mg  0.28388062  0.45135794  0.43297916     1.58200
O163        O  0.23268284  0.04746788  0.63216832    -0.80900
O164        O  0.21714119  0.46220805  0.36109166    -0.82600
C165        C  0.24237703  0.34687321  0.14785284     0.45600
H166        H  0.24147156  0.32259478  0.14802942    -0.03400
C167        C  0.24541599  0.40388464  0.14623478     0.45700
H168        H  0.24652118  0.42817017  0.14602095    -0.03400
C169        C  0.24168496  0.36074917  0.19110954    -0.17100
C170        C  0.27305563  0.35873130  0.12679812    -0.16800
C171        C  0.21441244  0.36154421  0.12496044    -0.17200
C172        C  0.24240298  0.39098974  0.18998185    -0.17200
C173        C  0.27489800  0.38892730  0.12609463    -0.16700
C174        C  0.21645821  0.39156873  0.12365086    -0.17100
O175        O  0.23282175  0.29383857  0.45917572    -0.88200
C176        C  0.19595432  0.21177620  0.47393365     0.87900
Mg177      Mg  0.28156797  0.30176095  0.43957896     1.58100
O178        O  0.21294876  0.24889876  0.56570027    -0.87900
O179        O  0.20023573  0.30497790  0.51036018    -0.75200
C180        C  0.36831937  0.21111038  0.55348065     0.92900
O181        O  0.25102334  0.23612724  0.40735808    -0.75000
O182        O  0.37030759  0.22287654  0.51777652    -0.82500
Mg183      Mg  0.20607120  0.26350666  0.42201647     1.58000
C184        C  0.26178680  0.20444138  0.65789238     0.92800
O185        O  0.15831897  0.28812919  0.42852782    -0.80800
H186        H  0.20730041  0.28334263  0.60285678    -0.06200
C187        C  0.28123722  0.19175306  0.52425512     0.87800
O188        O  0.29779401  0.30836863  0.50593639    -0.75300
O189        O  0.19606585  0.23872571  0.47707527    -0.88100
O190        O  0.23564442  0.20406875  0.63805648    -0.80900
C191        C  0.14426927  0.20202515  0.57476455     0.93000
C192        C  0.13339901  0.28956817  0.45176416     0.92800
Mg193      Mg  0.29753297  0.23992390  0.58398953     1.58000
O194        O  0.34323388  0.21343946  0.57608187    -0.80800
O195        O  0.25310795  0.26826197  0.59877760    -0.75100
O196        O  0.14280391  0.22259739  0.54800734    -0.80900
O197        O  0.21650342  0.28985933  0.36354952    -0.82600
O198        O  0.36181036  0.27927703  0.45650982    -0.80900
C199        C  0.22351787  0.26723494  0.58985830     0.87200
O200        O  0.30806186  0.26449514  0.52949155    -0.88100
O201        O  0.26983727  0.21006048  0.54830068    -0.88200
O202        O  0.30165103  0.19874683  0.49634606    -0.75200
Mg203      Mg  0.17385503  0.26234258  0.52760210     1.58000
O204        O  0.17052819  0.19414932  0.59090926    -0.82600
H205        H  0.22841571  0.33470938  0.48025150    -0.06300
O206        O  0.29054285  0.25536161  0.44156246    -0.87900
H207        H  0.29706020  0.22176084  0.40317356    -0.06200
H208        H  0.31614086  0.30045859  0.56247926    -0.06300
C209        C  0.28049137  0.23741640  0.41655100     0.87200
C210        C  0.22069872  0.31215376  0.48262388     0.87800
C211        C  0.30818031  0.29133517  0.53372976     0.87900
H212        H  0.27293925  0.16935643  0.52628919    -0.06300
O213        O  0.20531350  0.19523857  0.50301995    -0.75300
Mg214      Mg  0.32944298  0.24062763  0.47866573     1.58000
H215        H  0.18845928  0.20206617  0.44535601    -0.06300
C216        C  0.24256432  0.30120827  0.35006655     0.92800
O217        O  0.33280498  0.31040387  0.41910411    -0.82600
C218        C  0.35974610  0.30086231  0.43136779     0.92900
O219        O  0.13263237  0.27852448  0.48794142    -0.82500
Mg220      Mg  0.22155494  0.20265348  0.56961513     1.58200
O221        O  0.26765080  0.30216530  0.37188391    -0.80900
O222        O  0.28779178  0.21411074  0.64210809    -0.82600
C223        C  0.24973846  0.15319996  0.85584067     0.45600
H224        H  0.24897784  0.17747583  0.85723170    -0.03400
C225        C  0.25235089  0.09622970  0.85317644     0.45700
H226        H  0.25341447  0.07193057  0.85238958    -0.03400
C227        C  0.25084617  0.14102304  0.81165342    -0.17100
C228        C  0.27961422  0.14023699  0.87604177    -0.16800
C229        C  0.22083388  0.13799904  0.87701636    -0.17200
C230        C  0.25127970  0.11075342  0.81004691    -0.17200
C231        C  0.28098818  0.11027588  0.87501066    -0.16700
C232        C  0.22260614  0.10795859  0.87628787    -0.17100
C233        C  0.26214268  0.19144861  0.69962114     0.00000
C234        C  0.23811950  0.19910787  0.72832095    -0.11800
C235        C  0.23531600  0.18444212  0.76631583     0.02300
C236        C  0.25574123  0.16047715  0.77494873    -0.00100
C237        C  0.28086338  0.15400392  0.74704055    -0.11800
C238        C  0.28447081  0.16943750  0.70990197     0.02100
H239        H  0.22119776  0.21631909  0.72072899     0.15100
H240        H  0.29716207  0.13615543  0.75366159     0.15100
C241        C  0.31002128  0.16096607  0.68175126     0.36800
C242        C  0.21013600  0.19360176  0.79444366     0.36700
N243        N  0.33045961  0.15432683  0.65907404    -0.43600
N244        N  0.19000747  0.20178294  0.81653202    -0.43600
C245        C  0.24300887  0.34321444  0.23029729     0.00000
C246        C  0.26372363  0.35265614  0.26126329    -0.11800
C247        C  0.26318744  0.33992754  0.30043945     0.02300
C248        C  0.24367578  0.31516663  0.30862033    -0.00100
C249        C  0.22400648  0.30467243  0.27722295    -0.11800
C250        C  0.22328571  0.31854543  0.23843695     0.02100
H251        H  0.27989683  0.37082061  0.25527358     0.15100
H252        H  0.20864155  0.28591324  0.28326152     0.15100
C253        C  0.20088251  0.30773395  0.20874344     0.36800
C254        C  0.28073473  0.35459001  0.33237337     0.36700
N255        N  0.18283084  0.29859008  0.18536305    -0.43600
N256        N  0.29447421  0.36668959  0.35787927    -0.43600
C257        C  0.24163986  0.44109268  0.30234289     0.00000
C258        C  0.21627981  0.42195846  0.29421245    -0.11800
C259        C  0.21505446  0.40661284  0.25719564     0.02300
C260        C  0.23978943  0.41015707  0.22710258    -0.00100
C261        C  0.26388723  0.43105926  0.23387950    -0.11800
C262        C  0.26499848  0.44647569  0.27122355     0.02100
H263        H  0.19791352  0.41798796  0.31773921     0.15100
H264        H  0.28255537  0.43452936  0.21063803     0.15100
C265        C  0.28946654  0.46841144  0.27637625     0.36800
C266        C  0.18886791  0.38634865  0.25244682     0.36700
N267        N  0.30876117  0.48633954  0.28036296    -0.43600
N268        N  0.16798724  0.36976157  0.25054254    -0.43600
C269        C  0.25499529  0.06044809  0.69631411     0.00000
C270        C  0.23122211  0.08192124  0.70249770    -0.11800
C271        C  0.22918863  0.09820871  0.73882793     0.02300
C272        C  0.25104386  0.09299719  0.77106736    -0.00100
C273        C  0.27349418  0.07019851  0.76595545    -0.11800
C274        C  0.27621548  0.05449270  0.72887974     0.02100
H275        H  0.21455764  0.08689770  0.67805873     0.15100
H276        H  0.28951638  0.06489239  0.79060417     0.15100
C277        C  0.30099165  0.03249005  0.72537269     0.36800
C278        C  0.20436330  0.12017680  0.74092640     0.36700
N279        N  0.32097072  0.51499250  0.72268614    -0.43600
N280        N  0.18447709  0.13786993  0.74013193    -0.43600
C281        C  0.05527486  0.33632405  0.39619550     0.00000
C282        C  0.06319208  0.34171588  0.43748838    -0.11800
C283        C  0.08740459  0.32573665  0.45708606     0.02300
C284        C  0.10456964  0.30412707  0.43507918    -0.00100
C285        C  0.09538152  0.29747189  0.39478851    -0.11800
C286        C  0.07058381  0.31284055  0.37555042     0.02100
H287        H  0.05106907  0.35913450  0.45413758     0.15100
H288        H  0.10809954  0.28046958  0.37793871     0.15100
C289        C  0.06307738  0.30498934  0.33380429     0.36800
C290        C  0.09545936  0.33315250  0.49883771     0.36700
N291        N  0.05749153  0.29784953  0.30052956    -0.43600
N292        N  0.10189047  0.33904171  0.53234920    -0.43600
C293        C  0.38956961  0.31522946  0.41563723     0.00000
C294        C  0.41651275  0.31658060  0.44109486    -0.11800
C295        C  0.44471100  0.33077568  0.42774718     0.02300
C296        C  0.44618561  0.34402144  0.38840827    -0.00100
C297        C  0.41981633  0.34199945  0.36247603    -0.11800
C298        C  0.39177899  0.32756076  0.37544836     0.02100
H299        H  0.41539768  0.30692255  0.47173859     0.15100
H300        H  0.42118716  0.35173990  0.33188872     0.15100
C301        C  0.36655304  0.32433645  0.34584367     0.36800
C302        C  0.47160637  0.33170822  0.45514396     0.36700
N303        N  0.34678024  0.32150017  0.32155931    -0.43600
N304        N  0.49293855  0.33220259  0.47751806    -0.43600
C305        C  0.44915483  0.40924349  0.38898268     0.00000
C306        C  0.42557536  0.41583394  0.36011188    -0.11800
C307        C  0.39718131  0.43017802  0.37185053     0.02300
C308        C  0.39231699  0.43909795  0.41324787    -0.00100
C309        C  0.41668511  0.43350712  0.44180631    -0.11800
C310        C  0.44466453  0.41819904  0.43016207     0.02100
H311        H  0.42889965  0.40879511  0.32846172     0.15100
H312        H  0.41328252  0.44001797  0.47367913     0.15100
C313        C  0.46773445  0.41088024  0.46127645     0.36800
C314        C  0.37356714  0.43531505  0.34054857     0.36700
N315        N  0.48605942  0.40492141  0.48643030    -0.43600
N316        N  0.35477235  0.43906816  0.31518436    -0.43600
C317        C  0.06177121  0.40337496  0.39571721     0.00000
C318        C  0.05358082  0.42527967  0.42411367    -0.11800
C319        C  0.07719195  0.44183775  0.44349860     0.02300
C320        C  0.10996864  0.43710857  0.43360399    -0.00100
C321        C  0.11809783  0.41507182  0.40526826    -0.11800
C322        C  0.09457948  0.39834517  0.38630990     0.02100
H323        H  0.02852303  0.42959284  0.43109814     0.15100
H324        H  0.14313298  0.41106669  0.39734891     0.15100
C325        C  0.10528716  0.37733996  0.35603272     0.36800
C326        C  0.06676827  0.46396552  0.47229813     0.36700
N327        N  0.11503939  0.36057897  0.33234062    -0.43600
N328        N  0.05793015  0.98151230  0.49543628    -0.43600
C329        C  0.19226866  0.15450216  0.89250164     0.00000
C330        C  0.19498222  0.17220459  0.92751169    -0.11800
C331        C  0.16790827  0.18622724  0.94489664     0.02300
C332        C  0.13784421  0.18419361  0.92540463    -0.00100
C333        C  0.13562782  0.16694559  0.88991274    -0.11800
C334        C  0.16201493  0.15183137  0.87395131     0.02100
H335        H  0.21794178  0.17379649  0.94256148     0.15100
H336        H  0.11291256  0.16501534  0.87427974     0.15100
C337        C  0.15657365  0.13370200  0.83859418     0.36800
C338        C  0.17116818  0.20024941  0.98431738     0.36700
N339        N  0.15030012  0.11890152  0.81110245    -0.43600
N340        N  0.17372910  0.21079200  0.01643707    -0.43600
C341        C  0.35528650  0.19328992  0.92522225     0.00000
C342        C  0.36001295  0.17793183  0.88809847    -0.11800
C343        C  0.33564412  0.16099713  0.87135499     0.02300
C344        C  0.30562201  0.15898638  0.89176897    -0.00100
C345        C  0.30012743  0.17510992  0.92774066    -0.11800
C346        C  0.32461025  0.19190129  0.94494884     0.02100
H347        H  0.38299790  0.17888554  0.87192813     0.15100
H348        H  0.27681262  0.17396695  0.94303076     0.15100
C349        C  0.31729519  0.20705994  0.98289672     0.36800
C350        C  0.34209169  0.14643594  0.83272970     0.36700
N351        N  0.31129393  0.21907238  0.01338260    -0.43600
N352        N  0.34797457  0.13498046  0.80179981    -0.43600
C353        C  0.13877540  0.31034921  0.07093117     0.00000
C354        C  0.13158984  0.33051900  0.10227952    -0.11800
C355        C  0.15544986  0.34751776  0.12002725     0.02300
C356        C  0.18780292  0.34430553  0.10703009    -0.00100
C357        C  0.19526478  0.32406531  0.07601830    -0.11800
C358        C  0.17115349  0.30762236  0.05725914     0.02100
H359        H  0.10696826  0.33328798  0.11303390     0.15100
H360        H  0.22003925  0.32164167  0.06568972     0.15100
C361        C  0.18061990  0.28858754  0.02389916     0.36800
C362        C  0.14542387  0.36758404  0.15182480     0.36700
N363        N  0.18854372  0.27380433  0.99674004    -0.43600
N364        N  0.13571636  0.38367298  0.17644624    -0.43600
C365        C  0.29841431  0.33906160  0.10910591     0.00000
C366        C  0.30597731  0.34083677  0.06668900    -0.11800
C367        C  0.33333459  0.32675363  0.05022182     0.02300
C368        C  0.35417554  0.31150792  0.07664707    -0.00100
C369        C  0.34575883  0.30851240  0.11842291    -0.11800
C370        C  0.31783054  0.32141226  0.13460155     0.02100
H371        H  0.29103905  0.35401654  0.04670950     0.15100
H372        H  0.36134330  0.29617497  0.13867466     0.15100
C373        C  0.31123237  0.31729844  0.17798656     0.36800
C374        C  0.34032466  0.32925861  0.00661979     0.36700
N375        N  0.30729207  0.31278476  0.21283580    -0.43600
N376        N  0.34592622  0.33104437  0.97161622    -0.43600
C377        C  0.50114636  0.31487804  0.19378674     0.00000
C378        C  0.02840895  0.33126311  0.20363429    -0.11800
C379        C  0.03024195  0.34625310  0.24084743     0.02300
C380        C  0.00445919  0.34495128  0.26958305    -0.00100
C381        C  0.47754697  0.32776366  0.26057056    -0.11800
C382        C  0.47555376  0.31295224  0.22282537     0.02100
H383        H  0.04835019  0.33279278  0.18173852     0.15100
H384        H  0.45787917  0.32624661  0.28278397     0.15100
C385        C  0.44758578  0.29529337  0.21521251     0.36800
C386        C  0.05952327  0.36182806  0.24899293     0.36700
N387        N  0.42521164  0.28104235  0.20917697    -0.43600
N388        N  0.08341602  0.37399790  0.25429966    -0.43600
C389        C  0.05782520  0.15623060  0.60927596     0.00000
C390        C  0.07667454  0.16893854  0.63972541    -0.11800
C391        C  0.10532004  0.18338679  0.62924648     0.02300
C392        C  0.11448299  0.18673540  0.58736069    -0.00100
C393        C  0.09506638  0.17486535  0.55683057    -0.11800
C394        C  0.06729082  0.15910345  0.56747995     0.02100
H395        H  0.06946804  0.16676195  0.67190463     0.15100
H396        H  0.10219782  0.17712798  0.52462813     0.15100
C397        C  0.04947832  0.14580226  0.53487140     0.36800
C398        C  0.12476303  0.19464308  0.66199401     0.36700
N399        N  0.03615496  0.13507547  0.50788460    -0.43600
N400        N  0.14040521  0.20342371  0.68834222    -0.43600
C401        C  0.44521949  0.15848865  0.60114567     0.00000
C402        C  0.42639328  0.17557779  0.62762230    -0.11800
C403        C  0.40201469  0.19348735  0.61269417     0.02300
C404        C  0.39563051  0.19416822  0.56997509    -0.00100
C405        C  0.41432675  0.17679179  0.54326634    -0.11800
C406        C  0.43870545  0.15869309  0.55855838     0.02100
H407        H  0.43006797  0.17410051  0.66052342     0.15100
H408        H  0.40916112  0.17658114  0.51059746     0.15100
C409        C  0.45549399  0.13975979  0.53010789     0.36800
C410        C  0.38439093  0.21121157  0.64209089     0.36700
N411        N  0.46795173  0.12423813  0.50677252    -0.43600
N412        N  0.37035484  0.22535889  0.66576072    -0.43600
C413        C  0.39454193  0.05753895  0.56933371     0.00000
C414        C  0.38768893  0.07702649  0.60164830    -0.11800
C415        C  0.41172366  0.09369637  0.61956139     0.02300
C416        C  0.44364140  0.09184748  0.60464265    -0.00100
C417        C  0.45096463  0.07178935  0.57324747    -0.11800
C418        C  0.42683241  0.05473763  0.55541994     0.02100
H419        H  0.36326820  0.07924185  0.61340685     0.15100
H420        H  0.47560025  0.06968423  0.56231200     0.15100
C421        C  0.43618589  0.03402839  0.52400939     0.36800
C422        C  0.40268783  0.11137145  0.65443361     0.36700
N423        N  0.44374602  0.51727060  0.49902407    -0.43600
N424        N  0.39404195  0.12512368  0.68226381    -0.43600
C425        C  0.11126862  0.06022980  0.58295468     0.00000
C426        C  0.11047263  0.07295310  0.62228910    -0.11800
C427        C  0.08344327  0.08815006  0.63666555     0.02300
C428        C  0.05619087  0.09067272  0.61172628    -0.00100
C429        C  0.05639924  0.07738091  0.57287918    -0.11800
C430        C  0.08378240  0.06256957  0.55805041     0.02100
H431        H  0.13124415  0.07125152  0.64191324     0.15100
H432        H  0.03563918  0.07969098  0.55338559     0.15100
C433        C  0.08387519  0.05211749  0.51614779     0.36800
C434        C  0.08464408  0.10130687  0.67693300     0.36700
N435        N  0.08411418  0.04411612  0.48236061    -0.43600
N436        N  0.08616356  0.11172815  0.70925214    -0.43600
C437        C  0.00208951  0.16035580  0.72501551     0.00000
C438        C  0.02059597  0.14920747  0.75753974    -0.11800
C439        C  0.01979424  0.16172825  0.79684930     0.02300
C440        C  0.50084126  0.18689273  0.80449123    -0.00100
C441        C  0.48532856  0.20009035  0.77113079    -0.11800
C442        C  0.48673916  0.18782804  0.73146543     0.02100
H443        H  0.03500512  0.12977587  0.75285112     0.15100
H444        H  0.47235742  0.22042780  0.77596398     0.18300
C445        C  0.47384843  0.20540213  0.69866765     0.36800
C446        C  0.03721722  0.14701543  0.82912676     0.36700
N447        N  0.46441471  0.22107802  0.67340297    -0.43600
N448        N  0.05120315  0.13508417  0.85482241    -0.43600
C449        C  0.35755631  0.05651894  0.92234558     0.00000
C450        C  0.33712902  0.07165798  0.94970373    -0.11800
C451        C  0.31276471  0.08999995  0.93508212     0.02300
C452        C  0.30764197  0.09258689  0.89230420    -0.00100
C453        C  0.32826112  0.07785863  0.86500914    -0.11800
C454        C  0.35314467  0.06013231  0.87936418     0.02100
H455        H  0.34082655  0.06988228  0.98265792     0.15100
H456        H  0.32564036  0.08097050  0.83223763     0.15100
C457        C  0.37340721  0.04583513  0.84899625     0.36800
C458        C  0.29439670  0.10663137  0.96477538     0.36700
N459        N  0.38960008  0.03459742  0.82443189    -0.43600
N460        N  0.28082070  0.12025232  0.98942974    -0.43600
C461        C  0.13999624  0.05829344  0.91476270     0.00000
C462        C  0.15688185  0.07408864  0.94414812    -0.11800
C463        C  0.18485938  0.08933890  0.93305628     0.02300
C464        C  0.19665046  0.08835127  0.89196293    -0.00100
C465        C  0.18129296  0.07033940  0.86357653    -0.11800
C466        C  0.15263510  0.05600906  0.87430147     0.02100
H467        H  0.14753278  0.07535281  0.97552425     0.15100
H468        H  0.19045261  0.06914832  0.83210354     0.15100
C469        C  0.13655196  0.03940085  0.84314101     0.36800
C470        C  0.20052550  0.10589731  0.96454768     0.36700
N471        N  0.12390446  0.02615847  0.81785625    -0.43600
N472        N  0.21208490  0.11912296  0.99069621    -0.43600
C473        C  0.49340177  0.09268551  0.72572350     0.00000
C474        C  0.01590864  0.07008128  0.73130807    -0.11800
C475        C  0.01630517  0.05356189  0.76791174     0.02300
C476        C  0.49290899  0.05865516  0.79890556    -0.00100
C477        C  0.46930980  0.08001692  0.79236449    -0.11800
C478        C  0.46960043  0.09730938  0.75663935     0.02100
H479        H  0.03395883  0.06596063  0.70760579     0.15100
H480        H  0.45143487  0.08425893  0.81633900     0.15100
C481        C  0.44625733  0.12057642  0.75422699     0.36800
C482        C  0.04057171  0.03129457  0.77268561     0.36700
N483        N  0.42794476  0.13964467  0.75419166    -0.43600
N484        N  0.05995338  0.01334269  0.77636200    -0.43600
C485        C  0.30365657  0.40554187  0.11025137     0.00000
C486        C  0.33419280  0.39569063  0.12144826    -0.11800
C487        C  0.36211547  0.40781626  0.10429420     0.02300
C488        C  0.36036087  0.43306768  0.07862653    -0.00100
C489        C  0.32975336  0.44385238  0.06867781    -0.11800
C490        C  0.30159594  0.43016709  0.08367637     0.02100
H491        H  0.33641186  0.37782566  0.14332216     0.15100
H492        H  0.32770048  0.46306571  0.04905515     0.15100
C493        C  0.27120046  0.44200314  0.07091160     0.36800
C494        C  0.39182783  0.39261933  0.11247979     0.36700
N495        N  0.24719186  0.45221224  0.06052817    -0.43600
N496        N  0.41540236  0.38007726  0.11895108    -0.43600
C497        C  0.14208238  0.44546924  0.07292842     0.00000
C498        C  0.16064456  0.42756446  0.04671289    -0.11800
C499        C  0.18541305  0.41017894  0.06231618     0.02300
C500        C  0.19234676  0.41108278  0.10467132    -0.00100
C501        C  0.17548821  0.43052436  0.13026497    -0.11800
C502        C  0.14993469  0.44706243  0.11514583     0.02100
H503        H  0.15516979  0.42645556  0.01418122     0.15100
H504        H  0.18122346  0.43159313  0.16274535     0.15100
C505        C  0.13212611  0.46519243  0.14382854     0.36800
C506        C  0.20398226  0.39228992  0.03417802     0.36700
N507        N  0.11776349  0.47948062  0.16700793    -0.43600
N508        N  0.21897850  0.37805264  0.01160594    -0.43600
C509        C  0.50498671  0.41119349  0.27410665     0.00000
C510        C  0.47689322  0.41097624  0.25096253    -0.11800
C511        C  0.47446385  0.42756707  0.21458858     0.02300
C512        C  0.50157388  0.44300140  0.19863296    -0.00100
C513        C  0.02890286  0.44474517  0.22355886    -0.11800
C514        C  0.03030071  0.42989711  0.26158812     0.02100
H515        H  0.45658961  0.39795565  0.26164032     0.15100
H516        H  0.04955407  0.45738685  0.21314171     0.15100
C517        C  0.05836812  0.43368716  0.28643056     0.36800
C518        C  0.44334689  0.42941025  0.19588857     0.36700
N519        N  0.08100356  0.43725449  0.30595933    -0.43600
N520        N  0.41806996  0.43157577  0.18193168    -0.43600
O521        O  0.48266391  0.53983962  0.94904424    -0.88200
C522        C  0.44516291  0.95832767  0.96530695     0.87900
Mg523      Mg  0.03181143  0.54630822  0.92910625     1.58100
O524        O  0.45813837  0.99655309  0.05717668    -0.87900
O525        O  0.44886875  0.55147492  0.99893790    -0.75200
C526        C  0.11423401  0.96130177  0.05578889     0.92900
O527        O  0.50026542  0.98062232  0.90061964    -0.75000
O528        O  0.11601380  0.97137394  0.01910581    -0.82500
Mg529      Mg  0.45576633  0.50950655  0.91310993     1.58000
C530        C  0.00320446  0.95491357  0.15533661     0.92800
O531        O  0.41007287  0.53667158  0.91822591    -0.80800
H532        H  0.45048326  0.53192973  0.09208454    -0.06200
C533        C  0.02881442  0.93914446  0.02321169     0.87800
O534        O  0.04650101  0.55529923  0.99589052    -0.75300
O535        O  0.44397219  0.98528008  0.96795168    -0.88100
O536        O  0.47921803  0.95175623  0.13184170    -0.80900
C537        C  0.38980789  0.94904951  0.06411464     0.93000
C538        C  0.38419278  0.53876235  0.93932903     0.92800
Mg539      Mg  0.04191457  0.98982119  0.08126676     1.58000
O540        O  0.08899024  0.96404391  0.07815870    -0.80800
O541        O  0.99666461  0.51777439  0.09125604    -0.75100
O542        O  0.38775128  0.97021324  0.03812585    -0.80900
O543        O  0.46716300  0.53511156  0.85534033    -0.82600
O544        O  0.10930578  0.52510940  0.95535041    -0.80900
C545        C  0.46746496  0.51577175  0.08096297     0.87200
O546        O  0.05374209  0.51245717  0.02485772    -0.88100
O547        O  0.01654993  0.95818438  0.04533334    -0.88200
O548        O  0.04934219  0.94539735  0.99517308    -0.75200
Mg549      Mg  0.42046392  0.50964629  0.01674196     1.58000
O550        O  0.41657367  0.94158266  0.07912348    -0.82600
H551        H  0.47871611  0.58068295  0.97041096    -0.06300
O552        O  0.03918521  0.50008268  0.93583545    -0.87900
H553        H  0.04606571  0.96530558  0.89948198    -0.06200
H554        H  0.06158511  0.54988936  0.05465963    -0.06300
C555        C  0.02947190  0.98154687  0.91130326     0.87200
C556        C  0.47041403  0.55828092  0.97226139     0.87800
C557        C  0.05457170  0.53947212  0.02636870     0.87900
H558        H  0.02088853  0.91671775  0.02675530    -0.06300
O559        O  0.45460060  0.94239622  0.99496985    -0.75300
Mg560      Mg  0.07668124  0.98699632  0.97665045     1.58000
H561        H  0.43905039  0.94812258  0.93650372    -0.06300
C562        C  0.49347108  0.54432890  0.83983839     0.92800
O563        O  0.08379820  0.55297770  0.90944864    -0.82600
C564        C  0.10931180  0.54467850  0.92713173     0.92900
O565        O  0.38091660  0.52632971  0.97448433    -0.82500
Mg566      Mg  0.46782071  0.95047876  0.06239046     1.58200
O567        O  0.01955753  0.54378672  0.85981665    -0.80900
O568        O  0.02932155  0.96623711  0.14179108    -0.82600
C569        C  0.49790745  0.59680874  0.64493831     0.45600
H570        H  0.99732871  0.57248926  0.64613805    -0.03400
C571        C  0.49950069  0.65378783  0.64217881     0.45700
H572        H  0.50085065  0.67790780  0.63954840    -0.03400
C573        C  0.49613201  0.61128544  0.68777878    -0.17100
C574        C  0.02845854  0.60923543  0.62427219    -0.16800
C575        C  0.46979585  0.61018120  0.62154938    -0.17200
C576        C  0.99799670  0.64168212  0.68685608    -0.17200
C577        C  0.02914700  0.63917816  0.62264165    -0.16700
C578        C  0.47064304  0.64019515  0.61978335    -0.17100
O579        O  0.01272439  0.79348024  0.04360452    -0.88200
C580        C  0.05138493  0.71167011  0.03640684     0.87900
Mg581      Mg  0.46320650  0.80059533  0.06177264     1.58100
O582        O  0.03884838  0.74564341  0.94060536    -0.87900
O583        O  0.04675400  0.80305307  0.99291126    -0.75200
C584        C  0.38286185  0.71010110  0.94181393     0.92900
O585        O  0.99478487  0.73595357  0.09623886    -0.75000
O586        O  0.38037522  0.72259628  0.97666587    -0.82500
Mg587      Mg  0.03949772  0.76433977  0.08243261     1.58000
C588        C  0.49676416  0.69949701  0.84656671     0.92800
O589        O  0.08581038  0.79118130  0.07567627    -0.80800
H590        H  0.04714897  0.77894318  0.90155772    -0.06200
C591        C  0.46786012  0.68971194  0.97925652     0.87800
O592        O  0.44945649  0.80664806  0.99368536    -0.75300
O593        O  0.05218698  0.73839789  0.03043477    -0.88100
O594        O  0.02001618  0.69755675  0.87143588    -0.80900
C595        C  0.10809455  0.69946549  0.93975231     0.93000
C596        C  0.11184995  0.79258028  0.05448875     0.92800
Mg597      Mg  0.45580117  0.73732374  0.91511570     1.58000
O598        O  0.40875169  0.71146357  0.92027782    -0.80800
O599        O  0.50096154  0.76490063  0.90295218    -0.75100
O600        O  0.10960342  0.72187687  0.96297766    -0.80900
O601        O  0.02699884  0.79111145  0.13802005    -0.82600
O602        O  0.38528637  0.77882016  0.03535804    -0.80900
C603        C  0.02997017  0.76343812  0.91422538     0.87200
O604        O  0.44286492  0.76273790  0.96867692    -0.88100
O605        O  0.48067770  0.70756965  0.95537276    -0.88200
O606        O  0.44659873  0.69735548  0.00555797    -0.75200
Mg607      Mg  0.07588363  0.76094193  0.97984206     1.58000
O608        O  0.08146180  0.69012026  0.92651435    -0.82600
H609        H  0.01643188  0.83325122  0.01777150    -0.06300
O610        O  0.45580261  0.75424436  0.05944971    -0.87900
H611        H  0.44906644  0.72053468  0.09832769    -0.06200
H612        H  0.43561541  0.79893206  0.93500776    -0.06300
C613        C  0.46559077  0.73650433  0.08537134     0.87200
C614        C  0.02497344  0.81089240  0.01853334     0.87800
C615        C  0.44209251  0.78964400  0.96448323     0.87900
H616        H  0.47579383  0.66716699  0.97872510    -0.06300
O617        O  0.04207440  0.69417660  0.00889372    -0.75300
Mg618      Mg  0.41884760  0.73974927  0.01876455     1.58000
H619        H  0.05749479  0.70308384  0.06642900    -0.06300
C620        C  0.50069487  0.80101771  0.15258184     0.92800
O621        O  0.41075585  0.80762494  0.07949349    -0.82600
C622        C  0.38515537  0.79891352  0.06250585     0.92900
O623        O  0.11498448  0.77917402  0.02041682    -0.82500
Mg624      Mg  0.02983219  0.69927116  0.94074420     1.58200
O625        O  0.47495139  0.80101587  0.13176937    -0.80900
O626        O  0.47001524  0.71102902  0.85736212    -0.82600
C627        C  0.50726237  0.90314842  0.35509977     0.45600
H628        H  0.00867518  0.92741399  0.35648362    -0.03400
C629        C  0.50319972  0.84623517  0.35152694     0.45700
H630        H  0.50088946  0.82204645  0.35001078    -0.03400
C631        C  0.50703812  0.89149388  0.31085942    -0.17100
C632        C  0.03530789  0.88697562  0.37591829    -0.16800
C633        C  0.47660567  0.89064663  0.37553998    -0.17200
C634        C  0.00512905  0.86146206  0.30891252    -0.17200
C635        C  0.03289362  0.85684738  0.37469753    -0.16700
C636        C  0.47465211  0.86075880  0.37379308    -0.17100
O637        O  0.26836817  0.54058876  0.54489043    -0.88200
C638        C  0.30869647  0.95985674  0.52926546     0.87900
Mg639      Mg  0.21945828  0.54733851  0.56396585     1.58100
O640        O  0.29092938  0.99779496  0.43750302    -0.87900
O641        O  0.30107440  0.55312880  0.49421439    -0.75200
C642        C  0.13634518  0.95542596  0.44969119     0.92900
O643        O  0.25211131  0.98180378  0.59592561    -0.75000
O644        O  0.13363958  0.96775561  0.48465483    -0.82500
Mg645      Mg  0.29597592  0.51079988  0.58201465     1.58000
C646        C  0.24316714  0.95356885  0.34426908     0.92800
O647        O  0.34196733  0.53778574  0.57489830    -0.80800
H648        H  0.29492972  0.53314979  0.40113176    -0.06200
C649        C  0.22429908  0.93842744  0.47891992     0.87800
O650        O  0.20377623  0.55419960  0.49734712    -0.75300
O651        O  0.30762031  0.98684848  0.52659470    -0.88100
O652        O  0.26963211  0.95327240  0.36359866    -0.80900
C653        C  0.36187212  0.95325219  0.42739878     0.93000
C654        C  0.36737025  0.54022120  0.55262440     0.92800
Mg655      Mg  0.20634549  0.98667433  0.41933595     1.58000
O656        O  0.16153450  0.95834232  0.42722911    -0.80800
O657        O  0.24979728  0.51648328  0.40507751    -0.75100
O658        O  0.36272224  0.97338128  0.45459444    -0.80900
O659        O  0.28394100  0.53613673  0.64136331    -0.82600
O660        O  0.14029004  0.52379389  0.54469448    -0.80900
C661        C  0.27945757  0.51624770  0.41385817     0.87200
O662        O  0.19498613  0.51033892  0.47374191    -0.88100
O663        O  0.23515168  0.95709295  0.45459161    -0.88200
O664        O  0.20337874  0.94472507  0.50651679    -0.75200
Mg665      Mg  0.32938935  0.51166295  0.47643220     1.58000
O666        O  0.33555788  0.94475476  0.41206590    -0.82600
H667        H  0.27160985  0.58177273  0.52392827    -0.06300
O668        O  0.21189934  0.50075116  0.56200163    -0.87900
H669        H  0.20656678  0.96618248  0.59963140    -0.06200
H670        H  0.18618776  0.54640731  0.44054053    -0.06300
C671        C  0.22260382  0.98255374  0.58666185     0.87200
C672        C  0.28008984  0.55945106  0.52163158     0.87800
C673        C  0.19413522  0.53720115  0.46943783     0.87900
H674        H  0.23342407  0.91628456  0.47731492    -0.06300
O675        O  0.30023324  0.94360065  0.49971982    -0.75300
Mg676      Mg  0.17384580  0.98572199  0.52406078     1.58000
H677        H  0.31636119  0.94982605  0.55775726    -0.06300
C678        C  0.25737433  0.54656780  0.65475740     0.92800
O679        O  0.16781576  0.55504889  0.58296186    -0.82600
C680        C  0.14139125  0.54559636  0.56908795     0.92900
O681        O  0.36961000  0.52845177  0.51717373    -0.82500
Mg682      Mg  0.28389273  0.95139046  0.43293806     1.58200
O683        O  0.23264937  0.54748881  0.63216763    -0.80900
O684        O  0.21714344  0.96222970  0.36106103    -0.82600
C685        C  0.24235621  0.84685263  0.14784132     0.45600
H686        H  0.24144501  0.82257413  0.14802351    -0.03400
C687        C  0.24540531  0.90386378  0.14621765     0.45700
H688        H  0.24651553  0.92814912  0.14599855    -0.03400
C689        C  0.24165460  0.86073277  0.19109464    -0.17100
C690        C  0.27304275  0.85870403  0.12680101    -0.16800
C691        C  0.21440216  0.86152591  0.12493215    -0.17200
C692        C  0.24237851  0.89097330  0.18996664    -0.17200
C693        C  0.27489057  0.88889946  0.12609365    -0.16700
C694        C  0.21645067  0.89155053  0.12362257    -0.17100
O695        O  0.23281671  0.79385101  0.45916947    -0.88200
C696        C  0.19590259  0.71180408  0.47394142     0.87900
Mg697      Mg  0.28156454  0.80175420  0.43954654     1.58100
O698        O  0.21291612  0.74891940  0.56570878    -0.87900
O699        O  0.20024005  0.80499935  0.51036204    -0.75200
C700        C  0.36826538  0.71107945  0.55345878     0.92900
O701        O  0.25097814  0.73612903  0.40735698    -0.75000
O702        O  0.37026474  0.72284792  0.51775672    -0.82500
Mg703      Mg  0.20604226  0.76352901  0.42202285     1.58000
C704        C  0.26174232  0.70445521  0.65789394     0.92800
O705        O  0.15830421  0.78817164  0.42854452    -0.80800
H706        H  0.20728615  0.78337096  0.60285493    -0.06200
C707        C  0.28118035  0.69175682  0.52424659     0.87800
O708        O  0.29780939  0.80836655  0.50589595    -0.75300
O709        O  0.19602931  0.73875320  0.47708487    -0.88100
O710        O  0.23559975  0.70407855  0.63805861    -0.80900
C711        C  0.14421579  0.70206740  0.57477872     0.93000
C712        C  0.13338579  0.78961626  0.45178287     0.92800
Mg713      Mg  0.29749803  0.73992598  0.58397095     1.58000
O714        O  0.34318012  0.71342001  0.57605749    -0.80800
O715        O  0.25308918  0.76828150  0.59876053    -0.75100
O716        O  0.14275746  0.72264504  0.54802804    -0.80900
O717        O  0.21647831  0.78987351  0.36354862    -0.82600
O718        O  0.36180151  0.77925056  0.45645961    -0.80900
C719        C  0.22349624  0.76725725  0.58985631     0.87200
O720        O  0.30803896  0.76448918  0.52946238    -0.88100
O721        O  0.26978758  0.71006729  0.54829355    -0.88200
O722        O  0.30159728  0.69874386  0.49633712    -0.75200
Mg723      Mg  0.17383134  0.76237775  0.52761361     1.58000
O724        O  0.17047385  0.69417942  0.59091545    -0.82600
H725        H  0.22843678  0.83472057  0.48025844    -0.06300
O726        O  0.29051763  0.75535303  0.44153634    -0.87900
H727        H  0.29700663  0.72174198  0.40315787    -0.06200
H728        H  0.31615523  0.80045097  0.56243837    -0.06300
C729        C  0.28044963  0.73740730  0.41653648     0.87200
C730        C  0.22070656  0.81216847  0.48262553     0.87800
C731        C  0.30818218  0.79132950  0.53369357     0.87900
H732        H  0.27287392  0.66936281  0.52628056    -0.06300
O733        O  0.20525509  0.69526154  0.50302549    -0.75300
Mg734      Mg  0.32941154  0.74061102  0.47863996     1.58000
H735        H  0.18840018  0.70209852  0.44536405    -0.06300
C736        C  0.24254505  0.80120338  0.35005178     0.92800
O737        O  0.33280272  0.81037666  0.41904388    -0.82600
C738        C  0.35974276  0.80083178  0.43130721     0.92900
O739        O  0.13261649  0.77857399  0.48796009    -0.82500
Mg740      Mg  0.22150442  0.70267083  0.56961793     1.58200
O741        O  0.26763683  0.80214798  0.37185904    -0.80900
O742        O  0.28774660  0.71412386  0.64210473    -0.82600
C743        C  0.24970837  0.65321466  0.85585075     0.45600
H744        H  0.24893475  0.67749011  0.85724463    -0.03400
C745        C  0.25235047  0.59624555  0.85318104     0.45700
H746        H  0.25342551  0.57194690  0.85239309    -0.03400
C747        C  0.25081286  0.64104086  0.81166271    -0.17100
C748        C  0.27959543  0.64026372  0.87603869    -0.16800
C749        C  0.22081748  0.63799934  0.87703593    -0.17200
C750        C  0.25125849  0.61077127  0.81005256    -0.17200
C751        C  0.28098482  0.61030280  0.87500737    -0.16700
C752        C  0.22260760  0.60796024  0.87630758    -0.17100
C753        C  0.26209992  0.69146628  0.69962723     0.00000
C754        C  0.23807549  0.69912400  0.72832795    -0.11800
C755        C  0.23527480  0.68445956  0.76632549     0.02300
C756        C  0.25570491  0.66049836  0.77496041    -0.00100
C757        C  0.28083060  0.65403056  0.74705572    -0.11800
C758        C  0.28443225  0.66945938  0.70991246     0.02100
H759        H  0.22115029  0.71633192  0.72073438     0.15100
H760        H  0.29713605  0.63618796  0.75368267     0.15100
C761        C  0.30997880  0.66098209  0.68175992     0.36800
C762        C  0.21009395  0.69361548  0.79445535     0.36700
N763        N  0.33041392  0.65433347  0.65908356    -0.43600
N764        N  0.18996553  0.70179125  0.81654817    -0.43600
C765        C  0.24298146  0.84319918  0.23027941     0.00000
C766        C  0.26371556  0.85263043  0.26122872    -0.11800
C767        C  0.26319251  0.83989861  0.30040226     0.02300
C768        C  0.24365844  0.81515439  0.30860119    -0.00100
C769        C  0.22396738  0.80467181  0.27721849    -0.11800
C770        C  0.22324487  0.81854157  0.23843089     0.02100
H771        H  0.27989641  0.87078770  0.25522570     0.15100
H772        H  0.20858800  0.78592431  0.28326965     0.15100
C773        C  0.20082498  0.80774222  0.20874912     0.36800
C774        C  0.28078465  0.85453977  0.33231400     0.36700
N775        N  0.18275920  0.79860860  0.18537878    -0.43600
N776        N  0.29456388  0.86662223  0.35780018    -0.43600
C777        C  0.24163354  0.94110251  0.30231314     0.00000
C778        C  0.21628409  0.92194984  0.29421044    -0.11800
C779        C  0.21505088  0.90659623  0.25719983     0.02300
C780        C  0.23977260  0.91014358  0.22708846    -0.00100
C781        C  0.26385920  0.93106183  0.23383962    -0.11800
C782        C  0.26497306  0.94649249  0.27117264     0.02100
H783        H  0.19792932  0.91797635  0.31775105     0.15100
H784        H  0.28251442  0.93453861  0.21058309     0.15100
C785        C  0.28941799  0.96845470  0.27628751     0.36800
C786        C  0.18886206  0.88633194  0.25246812     0.36700
N787        N  0.30869203  0.98640559  0.28024015    -0.43600
N788        N  0.16797727  0.86974826  0.25057440    -0.43600
C789        C  0.25496164  0.56046886  0.69631454     0.00000
C790        C  0.23119262  0.58194636  0.70249843    -0.11800
C791        C  0.22916081  0.59823224  0.73883147     0.02300
C792        C  0.25101634  0.59301709  0.77107015    -0.00100
C793        C  0.27346017  0.57021378  0.76595667    -0.11800
C794        C  0.27617853  0.55450852  0.72888119     0.02100
H795        H  0.21452860  0.58692489  0.67805999     0.15100
H796        H  0.28947803  0.56490127  0.79060400     0.15100
C797        C  0.30094881  0.53250023  0.72537735     0.36800
C798        C  0.20433189  0.62019697  0.74093825     0.36700
N799        N  0.32101794  0.01498667  0.72267799    -0.43600
N800        N  0.18444096  0.63788615  0.74015478    -0.43600
C801        C  0.05525777  0.83634815  0.39619733     0.00000
C802        C  0.06317452  0.84175355  0.43748651    -0.11800
C803        C  0.08739382  0.82578750  0.45708924     0.02300
C804        C  0.10455737  0.80417103  0.43509455    -0.00100
C805        C  0.09536655  0.79749971  0.39481097    -0.11800
C806        C  0.07056936  0.81286128  0.37556384     0.02100
H807        H  0.05105008  0.85917631  0.45412548     0.15100
H808        H  0.10808547  0.78049291  0.37797125     0.15100
C809        C  0.06307397  0.80500482  0.33381614     0.36800
C810        C  0.09546094  0.83322914  0.49882735     0.36700
N811        N  0.05750017  0.79786197  0.30053917    -0.43600
N812        N  0.10190165  0.83914341  0.53232663    -0.43600
C813        C  0.38956855  0.81519893  0.41557376     0.00000
C814        C  0.41650661  0.81656551  0.44103821    -0.11800
C815        C  0.44469803  0.83077739  0.42769905     0.02300
C816        C  0.44617111  0.84402869  0.38836324    -0.00100
C817        C  0.41980762  0.84199126  0.36242297    -0.11800
C818        C  0.39177932  0.82753033  0.37538401     0.02100
H819        H  0.41539202  0.80690796  0.47168218     0.15100
H820        H  0.42117786  0.85173271  0.33183610     0.15100
C821        C  0.36656742  0.82427989  0.34576544     0.36800
C822        C  0.47158813  0.83172245  0.45510281     0.36700
N823        N  0.34680874  0.82142138  0.32146738    -0.43600
N824        N  0.49291654  0.83222748  0.47748213    -0.43600
C825        C  0.44914473  0.90925776  0.38893887     0.00000
C826        C  0.42557706  0.91587499  0.36006383    -0.11800
C827        C  0.39719477  0.93023797  0.37180315     0.02300
C828        C  0.39232659  0.93913745  0.41320807    -0.00100
C829        C  0.41668315  0.93351874  0.44177193    -0.11800
C830        C  0.44465521  0.91820180  0.43012320     0.02100
H831        H  0.42890354  0.90884882  0.32840834     0.15100
H832        H  0.41327783  0.94001735  0.47364939     0.15100
C833        C  0.46772277  0.91086796  0.46123402     0.36800
C834        C  0.37359896  0.93542536  0.34049355     0.36700
N835        N  0.48604874  0.90489815  0.48638169    -0.43600
N836        N  0.35481765  0.93922513  0.31512575    -0.43600
C837        C  0.06176008  0.90339862  0.39569473     0.00000
C838        C  0.05357280  0.92531498  0.42407618    -0.11800
C839        C  0.07718757  0.94187188  0.44346008     0.02300
C840        C  0.10996515  0.93712692  0.43358502    -0.00100
C841        C  0.11809079  0.91508026  0.40526400    -0.11800
C842        C  0.09456966  0.89835800  0.38630216     0.02100
H843        H  0.02851498  0.92963743  0.43105094     0.15100
H844        H  0.14312629  0.91106458  0.39735772     0.15100
C845        C  0.10527785  0.87734560  0.35603542     0.36800
C846        C  0.06676797  0.96401698  0.47223512     0.36700
N847        N  0.11503143  0.86057929  0.33235173    -0.43600
N848        N  0.05792744  0.48144562  0.49552040    -0.43600
C849        C  0.19224123  0.65448744  0.89251607     0.00000
C850        C  0.19493996  0.67219008  0.92752759    -0.11800
C851        C  0.16785878  0.68621158  0.94489317     0.02300
C852        C  0.13780429  0.68417878  0.92537792    -0.00100
C853        C  0.13559979  0.66692280  0.88989277    -0.11800
C854        C  0.16199326  0.65180658  0.87395292     0.02100
H855        H  0.21789377  0.67378561  0.94259072     0.15100
H856        H  0.11288996  0.66498855  0.87424845     0.15100
C857        C  0.15656403  0.63366206  0.83860770     0.36800
C858        C  0.17109964  0.70023423  0.98431696     0.36700
N859        N  0.15030091  0.61884712  0.81112718    -0.43600
N860        N  0.17364036  0.71077867  0.01643857    -0.43600
C861        C  0.35526118  0.69332455  0.92520717     0.00000
C862        C  0.35999927  0.67794168  0.88810617    -0.11800
C863        C  0.33563099  0.66100728  0.87136309     0.02300
C864        C  0.30559771  0.65902361  0.89175358    -0.00100
C865        C  0.30009008  0.67517732  0.92769526    -0.11800
C866        C  0.32457386  0.69196466  0.94490753     0.02100
H867        H  0.38299365  0.67887327  0.87195600     0.15100
H868        H  0.27676612  0.67405575  0.94296482     0.15100
C869        C  0.31724929  0.70714613  0.98283445     0.36800
C870        C  0.34208869  0.64641934  0.83276017     0.36700
N871        N  0.31123988  0.71917474  0.01330509    -0.43600
N872        N  0.34797416  0.63494117  0.80184785    -0.43600
C873        C  0.13877022  0.81033313  0.07089028     0.00000
C874        C  0.13158347  0.83050121  0.10224141    -0.11800
C875        C  0.15544300  0.84749894  0.11999226     0.02300
C876        C  0.18779525  0.84428865  0.10699427    -0.00100
C877        C  0.19525850  0.82405146  0.07597860    -0.11800
C878        C  0.17114805  0.80760884  0.05721672     0.02100
H879        H  0.10696213  0.83326797  0.11299771     0.15100
H880        H  0.22003328  0.82162922  0.06565073     0.15100
C881        C  0.18061482  0.78857422  0.02385624     0.36800
C882        C  0.14542177  0.86755898  0.15180049     0.36700
N883        N  0.18853804  0.77378980  0.99669802    -0.43600
N884        N  0.13572573  0.88364351  0.17643483    -0.43600
C885        C  0.29840199  0.83903106  0.10911839     0.00000
C886        C  0.30596568  0.84080011  0.06670165    -0.11800
C887        C  0.33332803  0.82672178  0.05024167     0.02300
C888        C  0.35417730  0.81149297  0.07667513    -0.00100
C889        C  0.34575897  0.80850048  0.11845081    -0.11800
C890        C  0.31782127  0.82138937  0.13462071     0.02100
H891        H  0.29102293  0.85397079  0.04671601     0.15100
H892        H  0.36134596  0.79616982  0.13870731     0.15100
C893        C  0.31121107  0.81726490  0.17800077     0.36800
C894        C  0.34031186  0.82921134  0.00663649     0.36700
N895        N  0.30726127  0.81273802  0.21284513    -0.43600
N896        N  0.34590771  0.83098283  0.97163024    -0.43600
C897        C  0.50117677  0.81485029  0.19378239     0.00000
C898        C  0.02843216  0.83124680  0.20362048    -0.11800
C899        C  0.03025888  0.84624826  0.24082639     0.02300
C900        C  0.00447566  0.84494626  0.26956223    -0.00100
C901        C  0.47757425  0.82774203  0.26056167    -0.11800
C902        C  0.47558907  0.81291741  0.22282634     0.02100
H903        H  0.04837158  0.83277821  0.18172223     0.15100
H904        H  0.45790875  0.82622010  0.28277788     0.15100
C905        C  0.44763590  0.79523532  0.21522912     0.36800
C906        C  0.05953599  0.86183087  0.24896932     0.36700
N907        N  0.42527562  0.78096385  0.20920388    -0.43600
N908        N  0.08342543  0.87400553  0.25427906    -0.43600
C909        C  0.05777268  0.65626238  0.60928352     0.00000
C910        C  0.07663595  0.66894647  0.63973846    -0.11800
C911        C  0.10527854  0.68340108  0.62926098     0.02300
C912        C  0.11442388  0.68678245  0.58737333    -0.00100
C913        C  0.09498845  0.67494174  0.55683948    -0.11800
C914        C  0.06721662  0.65917234  0.56748569     0.02100
H915        H  0.06944288  0.66674577  0.67191923     0.15100
H916        H  0.10210427  0.67722952  0.52463503     0.15100
C917        C  0.04938586  0.64589818  0.53487251     0.36800
C918        C  0.12473746  0.69462860  0.66201255     0.36700
N919        N  0.03604461  0.63519459  0.50788249    -0.43600
N920        N  0.14039245  0.70338615  0.68836343    -0.43600
C921        C  0.44515719  0.65844859  0.60112141     0.00000
C922        C  0.42631986  0.67552383  0.62760153    -0.11800
C923        C  0.40193787  0.69342961  0.61267733     0.02300
C924        C  0.39556450  0.69412354  0.56995557    -0.00100
C925        C  0.41426327  0.67675085  0.54324426    -0.11800
C926        C  0.43864207  0.65865169  0.55853471     0.02100
H927        H  0.42999201  0.67404071  0.66050268     0.15100
H928        H  0.40910075  0.67654481  0.51057439     0.15100
C929        C  0.45542591  0.63971434  0.53008496     0.36800
C930        C  0.38430190  0.71113705  0.64208271     0.36700
N931        N  0.46787729  0.62418764  0.50675064    -0.43600
N932        N  0.37025575  0.72526873  0.66576166    -0.43600
C933        C  0.39452334  0.55749378  0.56936258     0.00000
C934        C  0.38766970  0.57698582  0.60166965    -0.11800
C935        C  0.41170329  0.59365735  0.61957831     0.02300
C936        C  0.44362046  0.59181095  0.60465579    -0.00100
C937        C  0.45094603  0.57174377  0.57327258    -0.11800
C938        C  0.42681474  0.55468465  0.55545604     0.02100
H939        H  0.36324865  0.57920389  0.61342625     0.15100
H940        H  0.47558175  0.56963728  0.56233816     0.15100
C941        C  0.43616922  0.53395816  0.52406839     0.36800
C942        C  0.40266337  0.61133096  0.65444976     0.36700
N943        N  0.44376317  0.01735663  0.49894435    -0.43600
N944        N  0.39400567  0.62507891  0.68227826    -0.43600
C945        C  0.11123986  0.56024563  0.58294365     0.00000
C946        C  0.11045264  0.57297722  0.62227329    -0.11800
C947        C  0.08342653  0.58817656  0.63665578     0.02300
C948        C  0.05617026  0.59069983  0.61172377    -0.00100
C949        C  0.05637113  0.57740464  0.57287881    -0.11800
C950        C  0.08374686  0.56258105  0.55804992     0.02100
H951        H  0.13122747  0.57127684  0.64189190     0.15100
H952        H  0.03560752  0.57971435  0.55339100     0.15100
C953        C  0.08381926  0.55210153  0.51616173     0.36800
C954        C  0.08463330  0.60132978  0.67692515     0.36700
N955        N  0.08403713  0.54407551  0.48238663    -0.43600
N956        N  0.08615846  0.61174623  0.70924694    -0.43600
C957        C  0.00202217  0.66038093  0.72498363     0.00000
C958        C  0.02055456  0.64925287  0.75749460    -0.11800
C959        C  0.01975869  0.66177869  0.79679928     0.02300
C960        C  0.50078709  0.68693207  0.80444691    -0.00100
C961        C  0.48524565  0.70011175  0.77109485    -0.11800
C962        C  0.48664739  0.68784190  0.73143405     0.02100
H963        H  0.03497973  0.62983164  0.75279962     0.15100
H964        H  0.47225727  0.72043975  0.77593091     0.18300
C965        C  0.47372132  0.70539691  0.69863993     0.36800
C966        C  0.03720651  0.64707974  0.82906630     0.36700
N967        N  0.46425781  0.72106031  0.67337909    -0.43600
N968        N  0.05121189  0.63515819  0.85475284    -0.43600
C969        C  0.35755878  0.55656948  0.92238176     0.00000
C970        C  0.33716214  0.57175182  0.94972753    -0.11800
C971        C  0.31279349  0.59008323  0.93509206     0.02300
C972        C  0.30764184  0.59262232  0.89231403    -0.00100
C973        C  0.32823167  0.57784841  0.86503171    -0.11800
C974        C  0.35311213  0.56012430  0.87939985     0.02100
H975        H  0.34088525  0.57001493  0.98268005     0.15100
H976        H  0.32559183  0.58092197  0.83225875     0.15100
C977        C  0.37332993  0.54575993  0.84904720     0.36800
C978        C  0.29444531  0.60674517  0.96477121     0.36700
N979        N  0.38948504  0.53446455  0.82449581    -0.43600
N980        N  0.28088424  0.62038905  0.98941361    -0.43600
C981        C  0.14001928  0.55829044  0.91481650     0.00000
C982        C  0.15690645  0.57409073  0.94419495    -0.11800
C983        C  0.18488573  0.58933489  0.93309491     0.02300
C984        C  0.19666982  0.58834200  0.89199920    -0.00100
C985        C  0.18131714  0.57031778  0.86362518    -0.11800
C986        C  0.15266235  0.55598739  0.87435996     0.02100
H987        H  0.14755815  0.57536297  0.97557069     0.15100
H988        H  0.19047637  0.56911811  0.83215270     0.15100
C989        C  0.13658842  0.53935822  0.84321434     0.36800
C990        C  0.20056521  0.60588886  0.96458005     0.36700
N991        N  0.12395249  0.52609647  0.81794022    -0.43600
N992        N  0.21214016  0.61910809  0.99072343    -0.43600
C993        C  0.49337575  0.59271123  0.72573617     0.00000
C994        C  0.01590292  0.57012670  0.73133721    -0.11800
C995        C  0.01631886  0.55362481  0.76795591     0.02300
C996        C  0.49291884  0.55871110  0.79894765    -0.00100
C997        C  0.46929984  0.58005207  0.79239057    -0.11800
C998        C  0.46957392  0.59733142  0.75665298     0.02100
H999        H  0.03395529  0.56600985  0.70763648     0.15100
H1000       H  0.45142067  0.58428902  0.81636178     0.15100
C1001       C  0.44621331  0.62058310  0.75423104     0.36800
C1002       C  0.04061133  0.53138369  0.77274705     0.36700
N1003       N  0.42788589  0.63963947  0.75419288    -0.43600
N1004       N  0.06001550  0.51345358  0.77643493    -0.43600
C1005       C  0.30365453  0.90550669  0.11025209     0.00000
C1006       C  0.33418812  0.89565548  0.12146225    -0.11800
C1007       C  0.36211508  0.90776966  0.10430113     0.02300
C1008       C  0.36036670  0.93300897  0.07860883    -0.00100
C1009       C  0.32976161  0.94379469  0.06864977    -0.11800
C1010       C  0.30160082  0.93012079  0.08365702     0.02100
H1011       H  0.33640103  0.87779838  0.14335016     0.15100
H1012       H  0.32771290  0.96299955  0.04900989     0.15100
C1013       C  0.27120867  0.94195502  0.07087696     0.36800
C1014       C  0.39182452  0.89257358  0.11250592     0.36700
N1015       N  0.24720277  0.95216213  0.06048003    -0.43600
N1016       N  0.41539629  0.88003151  0.11899303    -0.43600
C1017       C  0.14208740  0.94546865  0.07289950     0.00000
C1018       C  0.16063896  0.92755413  0.04668642    -0.11800
C1019       C  0.18540058  0.91016095  0.06228960     0.02300
C1020       C  0.19234032  0.91106737  0.10464327    -0.00100
C1021       C  0.17548907  0.93051570  0.13023602    -0.11800
C1022       C  0.14994168  0.94706217  0.11511598     0.02100
H1023       H  0.15515942  0.92644236  0.01415632     0.15100
H1024       H  0.18122627  0.93158523  0.16271569     0.15100
C1025       C  0.13214111  0.96520121  0.14379552     0.36800
C1026       C  0.20395304  0.89225885  0.03415078     0.36700
N1027       N  0.11778493  0.97949702  0.16697202    -0.43600
N1028       N  0.21893226  0.87801035  0.01157465    -0.43600
C1029       C  0.50499230  0.91119315  0.27406917     0.00000
C1030       C  0.47689922  0.91097220  0.25092486    -0.11800
C1031       C  0.47446995  0.92756004  0.21454916     0.02300
C1032       C  0.50158083  0.94299058  0.19859036    -0.00100
C1033       C  0.02891007  0.94473942  0.22351765    -0.11800
C1034       C  0.03030590  0.92989731  0.26155127     0.02100
H1035       H  0.45659555  0.89795267  0.26160514     0.15100
H1036       H  0.04956105  0.95738073  0.21309873     0.15100
C1037       C  0.05836790  0.93369638  0.28640126     0.36800
C1038       C  0.44335198  0.92940848  0.19585263     0.36700
N1039       N  0.08099753  0.93727097  0.30593841    -0.43600
N1040       N  0.41807541  0.93158052  0.18189654    -0.43600
O1041       O  0.98265301  0.03977891  0.94899584    -0.88200
C1042       C  0.94515723  0.45839376  0.96535238     0.87900
Mg1043     Mg  0.53179538  0.04626151  0.92904963     1.58100
O1044       O  0.95814317  0.49661043  0.05722815    -0.87900
O1045       O  0.94885341  0.05141200  0.99888484    -0.75200
C1046       C  0.61422765  0.46130137  0.05581927     0.92900
O1047       O  0.00026257  0.48067808  0.90066044    -0.75000
O1048       O  0.61600545  0.47137341  0.01913618    -0.82500
Mg1049     Mg  0.95576036  0.00944386  0.91306387     1.58000
C1050       C  0.50319604  0.45493541  0.15538321     0.92800
O1051       O  0.91006659  0.03660742  0.91818722    -0.80800
H1052       H  0.95045849  0.03187007  0.09203071    -0.06200
C1053       C  0.52879190  0.43917917  0.02324959     0.87800
O1054       O  0.54648159  0.05527034  0.99582921    -0.75300
O1055       O  0.94397528  0.48534622  0.96799904    -0.88100
O1056       O  0.97920320  0.45179790  0.13189320    -0.80900
C1057       C  0.88979970  0.44911642  0.06414763     0.93000
C1058       C  0.88418537  0.03869976  0.93928721     0.92800
Mg1059     Mg  0.54191987  0.48984154  0.08131580     1.58000
O1060       O  0.58898686  0.46404883  0.07819404    -0.80800
O1061       O  0.49664793  0.01773763  0.09120045    -0.75100
O1062       O  0.88774706  0.47028111  0.03815996    -0.80900
O1063       O  0.96714950  0.03505393  0.85529495    -0.82600
O1064       O  0.60929528  0.02510282  0.95530271    -0.80900
C1065       C  0.96744931  0.01571960  0.08091027     0.87200
O1066       O  0.55372975  0.01243291  0.02480481    -0.88100
O1067       O  0.51653959  0.45822100  0.04537861    -0.88200
O1068       O  0.54931826  0.44542755  0.99520753    -0.75200
Mg1069     Mg  0.92045725  0.00958017  0.01669309     1.58000
O1070       O  0.91656209  0.44165180  0.07916672    -0.82600
H1071       H  0.97869661  0.08062299  0.97035705    -0.06300
O1072       O  0.53918626  0.00003971  0.93578732    -0.87900
H1073       H  0.54605990  0.46535419  0.89951862    -0.06200
H1074       H  0.56156403  0.04986924  0.05460057    -0.06300
C1075       C  0.52946878  0.48159607  0.91134448     0.87200
C1076       C  0.97039880  0.05821974  0.97220970     0.87800
C1077       C  0.55455374  0.03944801  0.02631125     0.87900
H1078       H  0.52085541  0.41675531  0.02678910    -0.06300
O1079       O  0.95458740  0.44245858  0.99501531    -0.75300
Mg1080     Mg  0.57667576  0.48701715  0.97669211     1.58000
H1081       H  0.93904275  0.44819153  0.93654787    -0.06300
C1082       C  0.99345839  0.04426726  0.83979121     0.92800
O1083       O  0.58377776  0.05294942  0.90938545    -0.82600
C1084       C  0.60929422  0.04466678  0.92707625     0.92900
O1085       O  0.88090465  0.02625876  0.97443657    -0.82500
Mg1086     Mg  0.96780888  0.45053278  0.06243744     1.58200
O1087       O  0.51954595  0.04371780  0.85976532    -0.80900
O1088       O  0.52931809  0.46624894  0.14183527    -0.82600
C1089       C  0.99792922  0.09680536  0.64493168     0.45600
H1090       H  0.49733366  0.07248585  0.64611891    -0.03400
C1091       C  0.99956215  0.15378352  0.64220091     0.45700
H1092       H  0.00093118  0.17790237  0.63957736    -0.03400
C1093       C  0.99617363  0.11127135  0.68777990    -0.17100
C1094       C  0.52848449  0.10921814  0.62426243    -0.16800
C1095       C  0.96982261  0.11020094  0.62155767    -0.17200
C1096       C  0.49806011  0.14166737  0.68687485    -0.17200
C1097       C  0.52919234  0.13916032  0.62264218    -0.16700
C1098       C  0.97068908  0.14021523  0.61980919    -0.17100
O1099       O  0.51272599  0.29349226  0.04361119    -0.88200
C1100       C  0.55140383  0.21168298  0.03646194     0.87900
Mg1101     Mg  0.96320385  0.30061055  0.06176000     1.58100
O1102       O  0.53887643  0.24563121  0.94063979    -0.87900
O1103       O  0.54676522  0.30305369  0.99292432    -0.75200
C1104       C  0.88288631  0.21007198  0.94182531     0.92900
O1105       O  0.49478033  0.23597638  0.09626131    -0.75000
O1106       O  0.88039332  0.22258073  0.97666720    -0.82500
Mg1107     Mg  0.53949442  0.26436154  0.08245906     1.58000
C1108       C  0.99681099  0.19945679  0.84661133     0.92800
O1109       O  0.58581016  0.29120405  0.07571056    -0.80800
H1110       H  0.54717250  0.27892596  0.90158223    -0.06200
C1111       C  0.96788666  0.18970445  0.97931243     0.87800
O1112       O  0.94946691  0.30664225  0.99366437    -0.75300
O1113       O  0.55220089  0.23840926  0.03047651    -0.88100
O1114       O  0.52005949  0.19752030  0.87148695    -0.80900
C1115       C  0.60813431  0.19946984  0.93980501     0.93000
C1116       C  0.61185389  0.29259704  0.05452968     0.92800
Mg1117     Mg  0.95583012  0.23729400  0.91513708     1.58000
O1118       O  0.90878097  0.21142638  0.92029689    -0.80800
O1119       O  0.00098857  0.26487441  0.90297452    -0.75100
O1120       O  0.60964255  0.22188237  0.96302909    -0.80900
O1121       O  0.52697614  0.29113990  0.13803203    -0.82600
O1122       O  0.88528374  0.27882545  0.03533922    -0.80900
C1123       C  0.52999622  0.26341964  0.91425256     0.87200
O1124       O  0.94287994  0.26272411  0.96867994    -0.88100
O1125       O  0.98070603  0.20755322  0.95541640    -0.88200
O1126       O  0.94661720  0.19735620  0.00559887    -0.75200
Mg1127     Mg  0.57590442  0.26094352  0.97987984     1.58000
O1128       O  0.58149996  0.19011660  0.92658256    -0.82600
H1129       H  0.51643535  0.33325642  0.01775763    -0.06300
O1130       O  0.95579942  0.25425936  0.05946178    -0.87900
H1131       H  0.94906200  0.22055672  0.09835134    -0.06200
H1132       H  0.93563640  0.29890831  0.93498727    -0.06300
C1133       C  0.96558658  0.23652470  0.08539132     0.87200
C1134       C  0.52497865  0.31089840  0.01853462     0.87800
C1135       C  0.94210813  0.28962914  0.96447025     0.87900
H1136       H  0.97582429  0.16716036  0.97880390    -0.06300
O1137       O  0.54210108  0.19418098  0.00895519    -0.75300
Mg1138     Mg  0.91885434  0.23975015  0.01877238     1.58000
H1139       H  0.55751134  0.20310547  0.06648983    -0.06300
C1140       C  0.00066982  0.30104830  0.15258434     0.92800
O1141       O  0.91075210  0.30764403  0.07945888    -0.82600
C1142       C  0.88515214  0.29892677  0.06247645     0.92900
O1143       O  0.61499253  0.27918648  0.02046179    -0.82500
Mg1144     Mg  0.52986611  0.19925722  0.94080028     1.58200
O1145       O  0.97493128  0.30104820  0.13176226    -0.80900
O1146       O  0.97005993  0.21098882  0.85739793    -0.82600
C1147       C  0.00727203  0.40313631  0.35513666     0.45600
H1148       H  0.50868814  0.42740128  0.35652735    -0.03400
C1149       C  0.00320431  0.34622364  0.35154925     0.45700
H1150       H  0.00089057  0.32203544  0.35002598    -0.03400
C1151       C  0.00703361  0.39148930  0.31089298    -0.17100
C1152       C  0.53532112  0.38695606  0.37593733    -0.16800
C1153       C  0.97662054  0.39063514  0.37558867    -0.17200
C1154       C  0.50512103  0.36145795  0.30893878    -0.17200
C1155       C  0.53290657  0.35682821  0.37470818    -0.16700
C1156       C  0.97466607  0.36074773  0.37383549    -0.17100
O1157       O  0.76839177  0.04059910  0.54488212    -0.88200
C1158       C  0.80867300  0.45983361  0.52930659     0.87900
Mg1159     Mg  0.71948399  0.04733371  0.56396775     1.58100
O1160       O  0.79092155  0.49776233  0.43752939    -0.87900
O1161       O  0.80108403  0.05315688  0.49420040    -0.75200
C1162       C  0.63634258  0.45541200  0.44971010     0.92900
O1163       O  0.75207042  0.48180412  0.59595325    -0.75000
O1164       O  0.63362838  0.46775049  0.48466593    -0.82500
Mg1165     Mg  0.79601045  0.01081119  0.58199286     1.58000
C1166       C  0.74316553  0.45354488  0.34430640     0.92800
O1167       O  0.84199345  0.03781229  0.57487794    -0.80800
H1168       H  0.79492620  0.03318672  0.40111214    -0.06200
C1169       C  0.72428347  0.43841615  0.47896820     0.87800
O1170       O  0.70379312  0.05420507  0.49735316    -0.75300
O1171       O  0.80759097  0.48682451  0.52662595    -0.88100
O1172       O  0.76962588  0.45323883  0.36364441    -0.80900
C1173       C  0.86185923  0.45321075  0.42743781     0.93000
C1174       C  0.86739125  0.04025987  0.55259699     0.92800
Mg1175     Mg  0.70634174  0.48665468  0.41936111     1.58000
O1176       O  0.66153494  0.45832512  0.42725431    -0.80800
O1177       O  0.74979872  0.01650845  0.40505551    -0.75100
O1178       O  0.86270705  0.47334140  0.45463167    -0.80900
O1179       O  0.78397982  0.03613247  0.64135311    -0.82600
O1180       O  0.64032114  0.02378639  0.54470044    -0.80900
C1181       C  0.77945923  0.01627990  0.41383635     0.87200
O1182       O  0.69499573  0.01035022  0.47372757    -0.88100
O1183       O  0.73514030  0.45707335  0.45462972    -0.88200
O1184       O  0.70335939  0.44472299  0.50655656    -0.75200
Mg1185     Mg  0.82940356  0.01169817  0.47640301     1.58000
O1186       O  0.83554511  0.44471180  0.41210655    -0.82600
H1187       H  0.77161855  0.08178827  0.52393686    -0.06300
O1188       O  0.71193341  0.00074518  0.56198015    -0.87900
H1189       H  0.70652067  0.46619648  0.59966477    -0.06200
H1190       H  0.68619734  0.04642790  0.44054609    -0.06300
C1191       C  0.72256326  0.48256137  0.58669026     0.87200
C1192       C  0.78010405  0.05946897  0.52162787     0.87800
C1193       C  0.69414731  0.03721385  0.46943733     0.87900
H1194       H  0.73340776  0.41627241  0.47737956    -0.06300
O1195       O  0.80021766  0.44357156  0.49976381    -0.75300
Mg1196     Mg  0.67382190  0.48572344  0.52407663     1.58000
H1197       H  0.81633728  0.44980913  0.55780287    -0.06300
C1198       C  0.75741004  0.04655180  0.65475405     0.92800
O1199       O  0.66784452  0.05503612  0.58297852    -0.82600
C1200       C  0.64142138  0.04558487  0.56910008     0.92900
O1201       O  0.86962830  0.02849530  0.51714195    -0.82500
Mg1202     Mg  0.78388058  0.45135791  0.43297944     1.58200
O1203       O  0.73268292  0.04746842  0.63216755    -0.80900
O1204       O  0.71714073  0.46220759  0.36109236    -0.82600
C1205       C  0.74237666  0.34687266  0.14785380     0.45600
H1206       H  0.74147109  0.32259422  0.14803065    -0.03400
C1207       C  0.74541575  0.40388408  0.14623529     0.45700
H1208       H  0.74652100  0.42816961  0.14602125    -0.03400
C1209       C  0.74168476  0.36074881  0.19111036    -0.17100
C1210       C  0.77305519  0.35873061  0.12679877    -0.16800
C1211       C  0.71441204  0.36154359  0.12496140    -0.17200
C1212       C  0.74240281  0.39098937  0.18998246    -0.17200
C1213       C  0.77489765  0.38892661  0.12609510    -0.16700
C1214       C  0.71645788  0.39156812  0.12365157    -0.17100
O1215       O  0.73282163  0.29383916  0.45917711    -0.88200
C1216       C  0.69595483  0.21177654  0.47393474     0.87900
Mg1217     Mg  0.78156783  0.30176191  0.43958054     1.58100
O1218       O  0.71294885  0.24889920  0.56570142    -0.87900
O1219       O  0.70023535  0.30497829  0.51036137    -0.75200
C1220       C  0.86831961  0.21111139  0.55348198     0.92900
O1221       O  0.75102382  0.23612797  0.40735951    -0.75000
O1222       O  0.87030796  0.22287778  0.51777800    -0.82500
Mg1223     Mg  0.70607142  0.26350705  0.42201775     1.58000
C1224       C  0.76178698  0.20444202  0.65789347     0.92800
O1225       O  0.65831898  0.28812922  0.42852891    -0.80800
H1226       H  0.70730022  0.28334302  0.60285799    -0.06200
C1227       C  0.78123781  0.19175395  0.52425634     0.87800
O1228       O  0.79779370  0.30836960  0.50593804    -0.75300
O1229       O  0.69606616  0.23872605  0.47707645    -0.88100
O1230       O  0.73564466  0.20406937  0.63805749    -0.80900
C1231       C  0.64426974  0.20202506  0.57476545     0.93000
C1232       C  0.63339894  0.28956803  0.45176510     0.92800
Mg1233     Mg  0.79753311  0.23992476  0.58399091     1.58000
O1234       O  0.84323409  0.21344044  0.57608315    -0.80800
O1235       O  0.75310787  0.26826258  0.59877892    -0.75100
O1236       O  0.64280426  0.22259734  0.54800831    -0.80900
O1237       O  0.71650352  0.28985974  0.36355087    -0.82600
O1238       O  0.86181043  0.27927845  0.45651153    -0.80900
C1239       C  0.72351781  0.26723541  0.58985951     0.87200
O1240       O  0.80806197  0.26449617  0.52949310    -0.88100
O1241       O  0.76983766  0.21006131  0.54830184    -0.88200
O1242       O  0.80165164  0.19874784  0.49634737    -0.75200
Mg1243     Mg  0.67385502  0.26234276  0.52760320     1.58000
O1244       O  0.67052869  0.19414938  0.59091018    -0.82600
H1245       H  0.72841514  0.33470997  0.48025278    -0.06300
O1246       O  0.79054311  0.25536263  0.44156398    -0.87900
H1247       H  0.79706081  0.22176191  0.40317507    -0.06200
H1248       H  0.81614055  0.30045964  0.56248094    -0.06300
C1249       C  0.78049182  0.23741735  0.41655248     0.87200
C1250       C  0.72069835  0.31215428  0.48262518     0.87800
C1251       C  0.80818013  0.29133619  0.53373138     0.87900
H1252       H  0.77293999  0.16935727  0.52629038    -0.06300
O1253       O  0.70531413  0.19523893  0.50302098    -0.75300
Mg1254     Mg  0.82944330  0.24062883  0.47866726     1.58000
H1255       H  0.68845990  0.20206652  0.44535705    -0.06300
C1256       C  0.74256434  0.30120886  0.35006795     0.92800
O1257       O  0.83280484  0.31040515  0.41910584    -0.82600
C1258       C  0.85974603  0.30086371  0.43136949     0.92900
O1259       O  0.63263227  0.27852435  0.48794236    -0.82500
Mg1260     Mg  0.72155538  0.20265396  0.56961618     1.58200
O1261       O  0.76765073  0.30216619  0.37188543    -0.80900
O1262       O  0.78779198  0.21411144  0.64210931    -0.82600
C1263       C  0.74973790  0.15319960  0.85584098     0.45600
H1264       H  0.74897687  0.17747545  0.85723226    -0.03400
C1265       C  0.75235115  0.09622938  0.85317620     0.45700
H1266       H  0.75341508  0.07193027  0.85238914    -0.03400
C1267       C  0.75084568  0.14102290  0.81165363    -0.17100
C1268       C  0.77961396  0.14023700  0.87604170    -0.16800
C1269       C  0.72083367  0.13799816  0.87701676    -0.17200
C1270       C  0.75127958  0.11075329  0.81004679    -0.17200
C1271       C  0.78098832  0.11027589  0.87501045    -0.16700
C1272       C  0.72260628  0.10795775  0.87628784    -0.17100
C1273       C  0.76214277  0.19144915  0.69962215     0.00000
C1274       C  0.73811943  0.19910824  0.72832182    -0.11800
C1275       C  0.73531571  0.18444224  0.76631649     0.02300
C1276       C  0.75574091  0.16047723  0.77494926    -0.00100
C1277       C  0.78086330  0.15400426  0.74704131    -0.11800
C1278       C  0.78447089  0.16943803  0.70990294     0.02100
H1279       H  0.72119769  0.21631947  0.72072990     0.15100
H1280       H  0.79716205  0.13615579  0.75366238     0.15100
C1281       C  0.81002150  0.16096678  0.68175232     0.36800
C1282       C  0.71013555  0.19360168  0.79444423     0.36700
N1283       N  0.83045992  0.15432769  0.65907514    -0.43600
N1284       N  0.69000693  0.20178268  0.81653260    -0.43600
C1285       C  0.74300876  0.34321427  0.23029820     0.00000
C1286       C  0.76372389  0.35265592  0.26126381    -0.11800
C1287       C  0.76318767  0.33992766  0.30044019     0.02300
C1288       C  0.74367577  0.31516697  0.30862156    -0.00100
C1289       C  0.72400613  0.30467279  0.27722451    -0.11800
C1290       C  0.72328525  0.31854559  0.23843839     0.02100
H1291       H  0.77989721  0.37082026  0.25527370     0.15100
H1292       H  0.70864094  0.28591382  0.28326346     0.15100
C1293       C  0.70088148  0.30773440  0.20874539     0.36800
C1294       C  0.78073501  0.35459036  0.33237383     0.36700
N1295       N  0.68282927  0.29859081  0.18536546    -0.43600
N1296       N  0.79447450  0.36669016  0.35787952    -0.43600
C1297       C  0.74163941  0.44109245  0.30234338     0.00000
C1298       C  0.71627949  0.42195809  0.29421298    -0.11800
C1299       C  0.71505418  0.40661251  0.25719614     0.02300
C1300       C  0.73978917  0.41015677  0.22710311    -0.00100
C1301       C  0.76388682  0.43105913  0.23387997    -0.11800
C1302       C  0.76499791  0.44647565  0.27122396     0.02100
H1303       H  0.69791322  0.41798752  0.31773975     0.15100
H1304       H  0.78255490  0.43452934  0.21063846     0.15100
C1305       C  0.78946557  0.46841180  0.27637644     0.36800
C1306       C  0.68886751  0.38634848  0.25244709     0.36700
N1307       N  0.80875982  0.48634028  0.28036294    -0.43600
N1308       N  0.66798666  0.36976161  0.25054252    -0.43600
C1309       C  0.75499526  0.06044839  0.69631354     0.00000
C1310       C  0.73122220  0.08192163  0.70249713    -0.11800
C1311       C  0.72918868  0.09820897  0.73882748     0.02300
C1312       C  0.75104379  0.09299725  0.77106702    -0.00100
C1313       C  0.77349399  0.07019848  0.76595503    -0.11800
C1314       C  0.77621529  0.05449277  0.72887924     0.02100
H1315       H  0.71455784  0.08689825  0.67805809     0.15100
H1316       H  0.78951609  0.06489217  0.79060380     0.15100
C1317       C  0.80099127  0.03248994  0.72537224     0.36800
C1318       C  0.70436339  0.12017710  0.74092592     0.36700
N1319       N  0.82097106  0.51499274  0.72268692    -0.43600
N1320       N  0.68447719  0.13787025  0.74013134    -0.43600
C1321       C  0.55527484  0.33632354  0.39619574     0.00000
C1322       C  0.56319166  0.34171528  0.43748879    -0.11800
C1323       C  0.58740408  0.32573608  0.45708673     0.02300
C1324       C  0.60456951  0.30412672  0.43507990    -0.00100
C1325       C  0.59538178  0.29747163  0.39478904    -0.11800
C1326       C  0.57058410  0.31284019  0.37555072     0.02100
H1327       H  0.55106841  0.35913379  0.45413791     0.15100
H1328       H  0.60810008  0.28046949  0.37793927     0.15100
C1329       C  0.56307802  0.30498905  0.33380446     0.36800
C1330       C  0.59545832  0.33315174  0.49883861     0.36700
N1331       N  0.55749245  0.29784929  0.30052962    -0.43600
N1332       N  0.60188898  0.33904078  0.53235032    -0.43600
C1333       C  0.88956948  0.31523088  0.41563873     0.00000
C1334       C  0.91651274  0.31658202  0.44109614    -0.11800
C1335       C  0.94471106  0.33077680  0.42774803     0.02300
C1336       C  0.94618558  0.34402232  0.38840895    -0.00100
C1337       C  0.91981614  0.34200038  0.36247698    -0.11800
C1338       C  0.89177876  0.32756193  0.37544970     0.02100
H1339       H  0.91539776  0.30692411  0.47173994     0.15100
H1340       H  0.92118691  0.35174063  0.33188954     0.15100
C1341       C  0.86655276  0.32433743  0.34584514     0.36800
C1342       C  0.97160665  0.33170915  0.45514446     0.36700
N1343       N  0.84677998  0.32150095  0.32156081    -0.43600
N1344       N  0.99293903  0.33220334  0.47751828    -0.43600
C1345       C  0.94915492  0.40924432  0.38898272     0.00000
C1346       C  0.92557574  0.41583520  0.36011170    -0.11800
C1347       C  0.89718171  0.43017936  0.37185024     0.02300
C1348       C  0.89231704  0.43909877  0.41324774    -0.00100
C1349       C  0.91668491  0.43350758  0.44180639    -0.11800
C1350       C  0.94466437  0.41819956  0.43016220     0.02100
H1351       H  0.92890024  0.40879668  0.32846144     0.15100
H1352       H  0.91328210  0.44001813  0.47367930     0.15100
C1353       C  0.96773416  0.41088058  0.46127667     0.36800
C1354       C  0.87356794  0.43531713  0.34054801     0.36700
N1355       N  0.98605906  0.40492165  0.48643056    -0.43600
N1356       N  0.85477352  0.43907089  0.31518352    -0.43600
C1357       C  0.56177114  0.40337443  0.39571753     0.00000
C1358       C  0.55358069  0.42527924  0.42411382    -0.11800
C1359       C  0.57719177  0.44183719  0.44349906     0.02300
C1360       C  0.60996850  0.43710775  0.43360500    -0.00100
C1361       C  0.61809776  0.41507095  0.40526939    -0.11800
C1362       C  0.59457945  0.39834449  0.38631062     0.02100
H1363       H  0.52852287  0.42959261  0.43109787     0.15100
H1364       H  0.64313295  0.41106569  0.39735035     0.15100
C1365       C  0.60528723  0.37733946  0.35603325     0.36800
C1366       C  0.56676801  0.46396516  0.47229824     0.36700
N1367       N  0.61503952  0.36057866  0.33234092    -0.43600
N1368       N  0.55793037  0.98151300  0.49543546    -0.43600
C1369       C  0.69226838  0.15450082  0.89250259     0.00000
C1370       C  0.69498172  0.17220230  0.92751362    -0.11800
C1371       C  0.66790774  0.18622485  0.94489860     0.02300
C1372       C  0.63784394  0.18419202  0.92540581    -0.00100
C1373       C  0.63562772  0.16694471  0.88991322    -0.11800
C1374       C  0.66201484  0.15183059  0.87395167     0.02100
H1375       H  0.71794110  0.17379362  0.94256396     0.15100
H1376       H  0.61291261  0.16501499  0.87427972     0.15100
C1377       C  0.65657373  0.13370182  0.83859388     0.36800
C1378       C  0.67116730  0.20024615  0.98432003     0.36700
N1379       N  0.65030028  0.11890180  0.81110163    -0.43600
N1380       N  0.67372790  0.21078805  0.01644023    -0.43600
C1381       C  0.85528608  0.19329067  0.92522151     0.00000
C1382       C  0.86001296  0.17793156  0.88809865    -0.11800
C1383       C  0.83564414  0.16099678  0.87135522     0.02300
C1384       C  0.80562167  0.15898680  0.89176849    -0.00100
C1385       C  0.80012661  0.17511162  0.92773894    -0.11800
C1386       C  0.82460934  0.19190323  0.94494695     0.02100
H1387       H  0.88299823  0.17888454  0.87192900     0.15100
H1388       H  0.77681147  0.17396948  0.94302830     0.15100
C1389       C  0.81729362  0.20706354  0.98289329     0.36800
C1390       C  0.84209202  0.14643494  0.83273050     0.36700
N1391       N  0.81129179  0.21907735  0.01337791    -0.43600
N1392       N  0.84797504  0.13497899  0.80180100    -0.43600
C1393       C  0.63877544  0.31034759  0.07093293     0.00000
C1394       C  0.63158960  0.33051800  0.10228041    -0.11800
C1395       C  0.65544946  0.34751714  0.12002782     0.02300
C1396       C  0.68780261  0.34430476  0.10703111    -0.00100
C1397       C  0.69526474  0.32406389  0.07602026    -0.11800
C1398       C  0.67115365  0.30762043  0.05726157     0.02100
H1399       H  0.60696794  0.33328714  0.11303436     0.15100
H1400       H  0.72003930  0.32164002  0.06569217     0.15100
C1401       C  0.68062043  0.28858455  0.02390296     0.36800
C1402       C  0.64542329  0.36758383  0.15182478     0.36700
N1403       N  0.68854458  0.27380041  0.99674501    -0.43600
N1404       N  0.63571575  0.38367306  0.17644582    -0.43600
C1405       C  0.79841362  0.33906087  0.10910618     0.00000
C1406       C  0.80597677  0.34083662  0.06668936    -0.11800
C1407       C  0.83333417  0.32675381  0.05022200     0.02300
C1408       C  0.85417512  0.31150791  0.07664703    -0.00100
C1409       C  0.84575816  0.30851165  0.11842271    -0.11800
C1410       C  0.81782965  0.32141108  0.13460145     0.02100
H1411       H  0.79103858  0.35401664  0.04671011     0.15100
H1412       H  0.86134253  0.29617390  0.13867421     0.15100
C1413       C  0.81123076  0.31729609  0.17798610     0.36800
C1414       C  0.84032433  0.32925931  0.00662004     0.36700
N1415       N  0.80728963  0.31278144  0.21283497    -0.43600
N1416       N  0.84592591  0.33104546  0.97161652    -0.43600
C1417       C  0.00114643  0.31487916  0.19378621     0.00000
C1418       C  0.52840901  0.33126186  0.20363467    -0.11800
C1419       C  0.53024206  0.34625214  0.24084754     0.02300
C1420       C  0.50445923  0.34495070  0.26958308    -0.00100
C1421       C  0.97754710  0.32776406  0.26057040    -0.11800
C1422       C  0.97555398  0.31295286  0.22282500     0.02100
H1423       H  0.54835033  0.33279119  0.18173896     0.15100
H1424       H  0.95787936  0.32624670  0.28278388     0.15100
C1425       C  0.94758626  0.29529366  0.21521212     0.36800
C1426       C  0.55952349  0.36182696  0.24899289     0.36700
N1427       N  0.92521235  0.28104235  0.20917657    -0.43600
N1428       N  0.58341635  0.37399665  0.25429946    -0.43600
C1429       C  0.55782565  0.15623035  0.60927634     0.00000
C1430       C  0.57667506  0.16893801  0.63972596    -0.11800
C1431       C  0.60532059  0.18338627  0.62924720     0.02300
C1432       C  0.61448355  0.18673511  0.58736144    -0.00100
C1433       C  0.59506695  0.17486524  0.55683119    -0.11800
C1434       C  0.56729133  0.15910336  0.56748037     0.02100
H1435       H  0.56946854  0.16676125  0.67190515     0.15100
H1436       H  0.60219840  0.17712803  0.52462878     0.15100
C1437       C  0.54947883  0.14580239  0.53487166     0.36800
C1438       C  0.62476355  0.19464243  0.66199486     0.36700
N1439       N  0.53615549  0.13507578  0.50788470    -0.43600
N1440       N  0.64040570  0.20342297  0.68834315    -0.43600
C1441       C  0.94521901  0.15848852  0.60114639     0.00000
C1442       C  0.92639288  0.17557755  0.62762325    -0.11800
C1443       C  0.90201459  0.19348754  0.61269533     0.02300
C1444       C  0.89563054  0.19416887  0.56997623    -0.00100
C1445       C  0.91432659  0.17679242  0.54326726    -0.11800
C1446       C  0.93870504  0.15869334  0.55855909     0.02100
H1447       H  0.93006753  0.17409999  0.66052437     0.15100
H1448       H  0.90916101  0.17658207  0.51059836     0.15100
C1449       C  0.95549342  0.13976007  0.53010842     0.36800
C1450       C  0.88439107  0.21121177  0.64209226     0.36700
N1451       N  0.96795105  0.12423841  0.50677295    -0.43600
N1452       N  0.87035519  0.22535912  0.66576226    -0.43600
C1453       C  0.89454217  0.05753840  0.56933409     0.00000
C1454       C  0.88768899  0.07702598  0.60164858    -0.11800
C1455       C  0.91172359  0.09369599  0.61956170     0.02300
C1456       C  0.94364136  0.09184723  0.60464308    -0.00100
C1457       C  0.95096478  0.07178903  0.57324805    -0.11800
C1458       C  0.92683270  0.05473714  0.55542052     0.02100
H1459       H  0.86326823  0.07924128  0.61340701     0.15100
H1460       H  0.97560043  0.06968398  0.56231270     0.15100
C1461       C  0.93618637  0.03402780  0.52401019     0.36800
C1462       C  0.90268751  0.11137107  0.65443381     0.36700
N1463       N  0.94374535  0.51727210  0.49902200    -0.43600
N1464       N  0.89404133  0.12512325  0.68226391    -0.43600
C1465       C  0.61126885  0.06023027  0.58295390     0.00000
C1466       C  0.61047279  0.07295311  0.62228860    -0.11800
C1467       C  0.58344330  0.08814972  0.63666542     0.02300
C1468       C  0.55619091  0.09067255  0.61172617    -0.00100
C1469       C  0.55639933  0.07738112  0.57287881    -0.11800
C1470       C  0.58378258  0.06257007  0.55804973     0.02100
H1471       H  0.63124432  0.07125141  0.64191270     0.15100
H1472       H  0.53563926  0.07969129  0.55338528     0.15100
C1473       C  0.58387537  0.05211826  0.51614697     0.36800
C1474       C  0.58464398  0.10130601  0.67693322     0.36700
N1475       N  0.58411438  0.04411707  0.48235970    -0.43600
N1476       N  0.58616333  0.11172686  0.70925265    -0.43600
C1477       C  0.50208969  0.16035562  0.72501550     0.00000
C1478       C  0.52059597  0.14920709  0.75753977    -0.11800
C1479       C  0.51979423  0.16172778  0.79684940     0.02300
C1480       C  0.00084097  0.18689303  0.80449112    -0.00100
C1481       C  0.98532800  0.20009041  0.77113073    -0.11800
C1482       C  0.98673870  0.18782808  0.73146541     0.02100
H1483       H  0.53500492  0.12977537  0.75285115     0.15100
H1484       H  0.97235665  0.22042775  0.77596389     0.18300
C1485       C  0.97384787  0.20540210  0.69866763     0.36800
C1486       C  0.53721681  0.14701463  0.82912694     0.36700
N1487       N  0.96441409  0.22107797  0.67340297    -0.43600
N1488       N  0.55120237  0.13508312  0.85482269    -0.43600
C1489       C  0.85755686  0.05651988  0.92234621     0.00000
C1490       C  0.83712994  0.07165955  0.94970411    -0.11800
C1491       C  0.81276555  0.09000129  0.93508217     0.02300
C1492       C  0.80764223  0.09258718  0.89230425    -0.00100
C1493       C  0.82826100  0.07785828  0.86500945    -0.11800
C1494       C  0.85314480  0.06013239  0.87936477     0.02100
H1495       H  0.84082788  0.06988456  0.98265828     0.15100
H1496       H  0.82563987  0.08096941  0.83223788     0.15100
C1497       C  0.87340729  0.04583489  0.84899708     0.36800
C1498       C  0.79439818  0.10663366  0.96477502     0.36700
N1499       N  0.88960016  0.03459698  0.82443291    -0.43600
N1500       N  0.78082276  0.12025547  0.98942894    -0.43600
C1501       C  0.63999608  0.05829270  0.91476206     0.00000
C1502       C  0.65688251  0.07408679  0.94414791    -0.11800
C1503       C  0.68486019  0.08933689  0.93305617     0.02300
C1504       C  0.69665067  0.08835014  0.89196252    -0.00100
C1505       C  0.68129245  0.07033922  0.86357559    -0.11800
C1506       C  0.65263439  0.05600913  0.87430044     0.02100
H1507       H  0.64753394  0.07535030  0.97552433     0.15100
H1508       H  0.69045168  0.06914878  0.83210235     0.15100
C1509       C  0.63655045  0.03940204  0.84313949     0.36800
C1510       C  0.70052713  0.10589421  0.96454800     0.36700
N1511       N  0.62390225  0.02616056  0.81785438    -0.43600
N1512       N  0.71208722  0.11911892  0.99069694    -0.43600
C1513       C  0.99340208  0.09268573  0.72572376     0.00000
C1514       C  0.51590793  0.07008066  0.73130742    -0.11800
C1515       C  0.51630432  0.05356105  0.76791089     0.02300
C1516       C  0.99290949  0.05865571  0.79890608    -0.00100
C1517       C  0.96930992  0.08001705  0.79236458    -0.11800
C1518       C  0.96960050  0.09730940  0.75663935     0.02100
H1519       H  0.53395792  0.06595981  0.70760493     0.15100
H1520       H  0.95143475  0.08425888  0.81633885     0.15100
C1521       C  0.94625715  0.12057621  0.75422668     0.36800
C1522       C  0.54057028  0.03129314  0.77268423     0.36700
N1523       N  0.92794440  0.13964431  0.75419116    -0.43600
N1524       N  0.55995146  0.01334076  0.77636017    -0.43600
C1525       C  0.80365620  0.40554105  0.11025147     0.00000
C1526       C  0.83419247  0.39568981  0.12144821    -0.11800
C1527       C  0.86211509  0.40781543  0.10429394     0.02300
C1528       C  0.86036040  0.43306675  0.07862609    -0.00100
C1529       C  0.82975285  0.44385135  0.06867737    -0.11800
C1530       C  0.80159549  0.43016612  0.08367621     0.02100
H1531       H  0.83641159  0.37782485  0.14332212     0.15100
H1532       H  0.82769991  0.46306458  0.04905454     0.15100
C1533       C  0.77119998  0.44200207  0.07091142     0.36800
C1534       C  0.89182751  0.39261860  0.11247959     0.36700
N1535       N  0.74719136  0.45221112  0.06052794    -0.43600
N1536       N  0.91540210  0.38007664  0.11895096    -0.43600
C1537       C  0.64208288  0.44546925  0.07292845     0.00000
C1538       C  0.66064476  0.42756407  0.04671312    -0.11800
C1539       C  0.68541292  0.41017824  0.06231666     0.02300
C1540       C  0.69234658  0.41108220  0.10467181    -0.00100
C1541       C  0.67548835  0.43052415  0.13026522    -0.11800
C1542       C  0.64993517  0.44706253  0.11514586     0.02100
H1543       H  0.65517000  0.42645510  0.01418146     0.15100
H1544       H  0.68122359  0.43159302  0.16274559     0.15100
C1545       C  0.63212690  0.46519296  0.14382834     0.36800
C1546       C  0.70398195  0.39228887  0.03417874     0.36700
N1547       N  0.61776452  0.47948150  0.16700753    -0.43600
N1548       N  0.71897809  0.37805131  0.01160692    -0.43600
C1549       C  0.00498626  0.41119403  0.27410670     0.00000
C1550       C  0.97689280  0.41097642  0.25096255    -0.11800
C1551       C  0.97446324  0.42756714  0.21458853     0.02300
C1552       C  0.00157310  0.44300169  0.19863290    -0.00100
C1553       C  0.52890373  0.44474443  0.22355882    -0.11800
C1554       C  0.53030143  0.42989626  0.26158802     0.02100
H1555       H  0.95658936  0.39795561  0.26164033     0.15100
H1556       H  0.54955510  0.45738589  0.21314167     0.15100
C1557       C  0.55836892  0.43368595  0.28643040     0.36800
C1558       C  0.94334627  0.42940996  0.19588848     0.36700
N1559       N  0.58100445  0.43725299  0.30595911    -0.43600
N1560       N  0.91806931  0.43157516  0.18193160    -0.43600
O1561       O  0.98266353  0.53983909  0.94904365    -0.88200
C1562       C  0.94516309  0.95832870  0.96530741     0.87900
Mg1563     Mg  0.53181172  0.54630874  0.92910693     1.58100
O1564       O  0.95813909  0.99655381  0.05717725    -0.87900
O1565       O  0.94886813  0.55147417  0.99893719    -0.75200
C1566       C  0.61423348  0.96130187  0.05578908     0.92900
O1567       O  0.00026565  0.98062307  0.90062028    -0.75000
O1568       O  0.61601315  0.97137387  0.01910591    -0.82500
Mg1569     Mg  0.95576593  0.50950601  0.91310930     1.58000
C1570       C  0.50320374  0.95491362  0.15533650     0.92800
O1571       O  0.91007237  0.53667106  0.91822527    -0.80800
H1572       H  0.95048240  0.53192931  0.09208362    -0.06200
C1573       C  0.52881402  0.93914403  0.02321167     0.87800
O1574       O  0.54650125  0.55529967  0.99589123    -0.75300
O1575       O  0.94397256  0.98528110  0.96795231    -0.88100
O1576       O  0.97921866  0.95175648  0.13184187    -0.80900
C1577       C  0.88980838  0.94905057  0.06411495     0.93000
C1578       C  0.88419220  0.53876165  0.93932824     0.92800
Mg1579     Mg  0.54191385  0.98982105  0.08126647     1.58000
O1580       O  0.58898970  0.96404395  0.07815891    -0.80800
O1581       O  0.49666541  0.51777468  0.09125684    -0.75100
O1582       O  0.88775183  0.97021443  0.03812638    -0.80900
O1583       O  0.96716257  0.53511116  0.85533981    -0.82600
O1584       O  0.60930615  0.52511010  0.95535087    -0.80900
C1585       C  0.96746416  0.51577131  0.08096222     0.87200
O1586       O  0.55374273  0.51245760  0.02485828    -0.88100
O1587       O  0.51654945  0.95818394  0.04533327    -0.88200
O1588       O  0.54934175  0.94539696  0.99517304    -0.75200
Mg1589     Mg  0.92046327  0.50964547  0.01674119     1.58000
O1590       O  0.91657412  0.94158355  0.07912371    -0.82600
H1591       H  0.97871559  0.58068234  0.97041068    -0.06300
O1592       O  0.53918563  0.50008321  0.93583606    -0.87900
H1593       H  0.54606557  0.96530503  0.89948146    -0.06200
H1594       H  0.56158545  0.54988980  0.05466030    -0.06300
C1595       C  0.52947165  0.98154624  0.91130271     0.87200
C1596       C  0.97041354  0.55828028  0.97226089     0.87800
C1597       C  0.55457211  0.53947256  0.02636933     0.87900
H1598       H  0.52088823  0.91671730  0.02675534    -0.06300
O1599       O  0.95460084  0.94239711  0.99497010    -0.75300
Mg1600     Mg  0.57668074  0.98699593  0.97665024     1.58000
H1601       H  0.93905037  0.94812374  0.93650416    -0.06300
C1602       C  0.99347062  0.54432850  0.83983781     0.92800
O1603       O  0.58379830  0.55297841  0.90944935    -0.82600
C1604       C  0.60931196  0.54467931  0.92713235     0.92900
O1605       O  0.88091595  0.52632874  0.97448335    -0.82500
Mg1606     Mg  0.96782118  0.95047940  0.06239065     1.58200
O1607       O  0.51955792  0.54378722  0.85981735    -0.80900
O1608       O  0.52932077  0.96623726  0.14179095    -0.82600
C1609       C  0.99790732  0.59680882  0.64493796     0.45600
H1610       H  0.49732906  0.57248919  0.64613858    -0.03400
C1611       C  0.99950105  0.65378791  0.64217879     0.45700
H1612       H  0.00085122  0.67790787  0.63954851    -0.03400
C1613       C  0.99613167  0.61128540  0.68777851    -0.17100
C1614       C  0.52845842  0.60923550  0.62427208    -0.16800
C1615       C  0.96979605  0.61018153  0.62154872    -0.17200
C1616       C  0.49799676  0.64168216  0.68685617    -0.17200
C1617       C  0.52914661  0.63917824  0.62264134    -0.16700
C1618       C  0.97064350  0.64019547  0.61978280    -0.17100
O1619       O  0.51272394  0.79348187  0.04360317    -0.88200
C1620       C  0.55138540  0.71167213  0.03640577     0.87900
Mg1621     Mg  0.96320699  0.80059430  0.06177347     1.58100
O1622       O  0.53884800  0.74564480  0.94060410    -0.87900
O1623       O  0.54675308  0.80305479  0.99290940    -0.75200
C1624       C  0.88286215  0.71010076  0.94181438     0.92900
O1625       O  0.49478538  0.73595513  0.09623785    -0.75000
O1626       O  0.88037547  0.72259610  0.97666616    -0.82500
Mg1627     Mg  0.53949786  0.76434175  0.08243111     1.58000
C1628       C  0.99676435  0.69949648  0.84656704     0.92800
O1629       O  0.58581029  0.79118357  0.07567428    -0.80800
H1630       H  0.54714808  0.77894444  0.90155608    -0.06200
C1631       C  0.96785992  0.68971111  0.97925698     0.87800
O1632       O  0.94945746  0.80664729  0.99368613    -0.75300
O1633       O  0.55218714  0.73839988  0.03043335    -0.88100
O1634       O  0.52001606  0.69755755  0.87143546    -0.80900
C1635       C  0.60809475  0.69946762  0.93975085     0.93000
C1636       C  0.61184975  0.79258267  0.05448654     0.92800
Mg1637     Mg  0.95580158  0.73732315  0.91511629     1.58000
O1638       O  0.90875200  0.71146315  0.92027827    -0.80800
O1639       O  0.00096229  0.76489973  0.90295326    -0.75100
O1640       O  0.60960351  0.72187923  0.96297577    -0.80900
O1641       O  0.52699904  0.79111336  0.13801866    -0.82600
O1642       O  0.88528667  0.77881990  0.03535836    -0.80900
C1643       C  0.52996949  0.76343930  0.91422403     0.87200
O1644       O  0.94286544  0.76273723  0.96867759    -0.88100
O1645       O  0.98067768  0.70756871  0.95537323    -0.88200
O1646       O  0.94659858  0.69735481  0.00555842    -0.75200
Mg1647     Mg  0.57588325  0.76094394  0.97984025     1.58000
O1648       O  0.58146199  0.69012194  0.92651352    -0.82600
H1649       H  0.51643069  0.83325273  0.01776961    -0.06300
O1650       O  0.95580257  0.75424342  0.05945049    -0.87900
H1651       H  0.94906568  0.72053373  0.09832827    -0.06200
H1652       H  0.93561656  0.79893150  0.93500841    -0.06300
C1653       C  0.96559032  0.73650321  0.08537215     0.87200
C1654       C  0.52497257  0.81089402  0.01853163     0.87800
C1655       C  0.94209339  0.78964334  0.96448393     0.87900
H1656       H  0.97579343  0.66716610  0.97872560    -0.06300
O1657       O  0.54207483  0.69417836  0.00889302    -0.75300
Mg1658     Mg  0.91884771  0.73974876  0.01876501     1.58000
H1659       H  0.55749554  0.70308612  0.06642798    -0.06300
C1660       C  0.00069475  0.80101624  0.15258287     0.92800
O1661       O  0.91075635  0.80762452  0.07949379    -0.82600
C1662       C  0.88515580  0.79891336  0.06250605     0.92900
O1663       O  0.61498411  0.77917655  0.02041449    -0.82500
Mg1664     Mg  0.52983229  0.69927245  0.94074359     1.58200
O1665       O  0.97495139  0.80101464  0.13177019    -0.80900
O1666       O  0.97001549  0.71102860  0.85736248    -0.82600
C1667       C  0.00726241  0.90314801  0.35509990     0.45600
H1668       H  0.50867520  0.92741440  0.35648343    -0.03400
C1669       C  0.00319990  0.84623476  0.35152692     0.45700
H1670       H  0.00088973  0.82204603  0.35001068    -0.03400
C1671       C  0.00703828  0.89149352  0.31085949    -0.17100
C1672       C  0.53530786  0.88697600  0.37591811    -0.16800
C1673       C  0.97660571  0.89064611  0.37554004    -0.17200
C1674       C  0.50512887  0.86146242  0.30891248    -0.17200
C1675       C  0.53289353  0.85684775  0.37469742    -0.16700
C1676       C  0.97465221  0.86075828  0.37379298    -0.17100
O1677       O  0.76836786  0.54058861  0.54489096    -0.88200
C1678       C  0.80869613  0.95985662  0.52926551     0.87900
Mg1679     Mg  0.71945802  0.54733803  0.56396673     1.58100
O1680       O  0.79092983  0.99779489  0.43750285    -0.87900
O1681       O  0.80107364  0.55312889  0.49421458    -0.75200
C1682       C  0.63634529  0.95542672  0.44969010     0.92900
O1683       O  0.75211096  0.98180417  0.59592525    -0.75000
O1684       O  0.63363969  0.96775639  0.48465373    -0.82500
Mg1685     Mg  0.79597606  0.51080000  0.58201500     1.58000
C1686       C  0.74316761  0.95356914  0.34426868     0.92800
O1687       O  0.84196724  0.53778626  0.57489825    -0.80800
H1688       H  0.79492885  0.53314978  0.40113204    -0.06200
C1689       C  0.72429891  0.93842784  0.47891934     0.87800
O1690       O  0.70377564  0.55419899  0.49734811    -0.75300
O1691       O  0.80762024  0.98684836  0.52659463    -0.88100
O1692       O  0.76963248  0.95327246  0.36359846    -0.80900
C1693       C  0.86187216  0.95325153  0.42739924     0.93000
C1694       C  0.86736999  0.54022188  0.55262404     0.92800
Mg1695     Mg  0.70634588  0.98667483  0.41933522     1.58000
O1696       O  0.66153465  0.95834302  0.42722807    -0.80800
O1697       O  0.74979655  0.51648300  0.40507806    -0.75100
O1698       O  0.86272240  0.97338062  0.45459490    -0.80900
O1699       O  0.78394122  0.53613682  0.64136378    -0.82600
O1700       O  0.64028989  0.52379320  0.54469562    -0.80900
C1701       C  0.77945687  0.51624761  0.41385854     0.87200
O1702       O  0.69498582  0.51033826  0.47374291    -0.88100
O1703       O  0.73515171  0.95709331  0.45459111    -0.88200
O1704       O  0.70337856  0.94472559  0.50651612    -0.75200
Mg1705     Mg  0.82938889  0.51166327  0.47643222     1.58000
O1706       O  0.83555788  0.94475431  0.41206628    -0.82600
H1707       H  0.77160898  0.58177261  0.52392874    -0.06300
O1708       O  0.71189936  0.50075063  0.56200260    -0.87900
H1709       H  0.70656625  0.96618324  0.59963081    -0.06200
H1710       H  0.68618704  0.54640661  0.44054163    -0.06300
C1711       C  0.72260353  0.98255433  0.58666124     0.87200
C1712       C  0.78008920  0.55945098  0.52163199     0.87800
C1713       C  0.69413468  0.53720049  0.46943886     0.87900
H1714       H  0.73342376  0.91628491  0.47731436    -0.06300
O1715       O  0.80023288  0.94360054  0.49971987    -0.75300
Mg1716     Mg  0.67384587  0.98572266  0.52405983     1.58000
H1717       H  0.81636063  0.94982592  0.55775741    -0.06300
C1718       C  0.75737450  0.54656771  0.65475802     0.92800
O1719       O  0.66781556  0.55504822  0.58296303    -0.82600
C1720       C  0.64139107  0.54559572  0.56908902     0.92900
O1721       O  0.86960957  0.52845246  0.51717336    -0.82500
Mg1722     Mg  0.78389276  0.95139044  0.43293797     1.58200
O1723       O  0.73264943  0.54748847  0.63216842    -0.80900
O1724       O  0.71714392  0.96223018  0.36106044    -0.82600
C1725       C  0.74235667  0.84685340  0.14784032     0.45600
H1726       H  0.74144555  0.82257490  0.14802220    -0.03400
C1727       C  0.74540568  0.90386455  0.14621715     0.45700
H1728       H  0.74651584  0.92814990  0.14599827    -0.03400
C1729       C  0.74165489  0.86073333  0.19109379    -0.17100
C1730       C  0.77304328  0.85870491  0.12680033    -0.16800
C1731       C  0.71440265  0.86152677  0.12493117    -0.17200
C1732       C  0.74237879  0.89097387  0.18996603    -0.17200
C1733       C  0.77489101  0.88890035  0.12609315    -0.16700
C1734       C  0.71645112  0.89155138  0.12362186    -0.17100
O1735       O  0.73281689  0.79385028  0.45916778    -0.88200
C1736       C  0.69590228  0.71180356  0.47393979     0.87900
Mg1737     Mg  0.78156471  0.80175320  0.43954468     1.58100
O1738       O  0.71291610  0.74891873  0.56570716    -0.87900
O1739       O  0.70024042  0.80499877  0.51036049    -0.75200
C1740       C  0.86826532  0.71107859  0.55345716     0.92900
O1741       O  0.75097782  0.73612827  0.40735510    -0.75000
O1742       O  0.87026453  0.72284686  0.51775497    -0.82500
Mg1743     Mg  0.70604214  0.76352852  0.42202118     1.58000
C1744       C  0.76174218  0.70445440  0.65789235     0.92800
O1745       O  0.65830429  0.78817147  0.42854310    -0.80800
H1746       H  0.70728631  0.78337033  0.60285327    -0.06200
C1747       C  0.78118000  0.69175582  0.52424491     0.87800
O1748       O  0.79780972  0.80836553  0.50589402    -0.75300
O1749       O  0.69602912  0.73875268  0.47708321    -0.88100
O1750       O  0.73559958  0.70407770  0.63805707    -0.80900
C1751       C  0.64421536  0.70206720  0.57477728     0.93000
C1752       C  0.63338594  0.78961621  0.45178158     0.92800
Mg1753     Mg  0.79749794  0.73992502  0.58396917     1.58000
O1754       O  0.84318004  0.71341904  0.57605587    -0.80800
O1755       O  0.75308927  0.76828070  0.59875878    -0.75100
O1756       O  0.64275717  0.72264481  0.54802654    -0.80900
O1757       O  0.71647827  0.78987311  0.36354703    -0.82600
O1758       O  0.86180146  0.77924928  0.45645769    -0.80900
C1759       C  0.72349632  0.76725655  0.58985464     0.87200
O1760       O  0.80803889  0.76448810  0.52946049    -0.88100
O1761       O  0.76978733  0.71006631  0.54829192    -0.88200
O1762       O  0.80159693  0.69874280  0.49633540    -0.75200
Mg1763     Mg  0.67383140  0.76237732  0.52761207     1.58000
O1764       O  0.67047341  0.69417905  0.59091392    -0.82600
H1765       H  0.72843732  0.83471983  0.48025686    -0.06300
O1766       O  0.79051749  0.75535198  0.44153445    -0.87900
H1767       H  0.79700620  0.72174092  0.40315590    -0.06200
H1768       H  0.81615555  0.80044984  0.56243641    -0.06300
C1769       C  0.78044934  0.73740633  0.41653457     0.87200
C1770       C  0.72070693  0.81216779  0.48262392     0.87800
C1771       C  0.80818237  0.79132842  0.53369165     0.87900
H1772       H  0.77287348  0.66936183  0.52627888    -0.06300
O1773       O  0.70525468  0.69526099  0.50302389    -0.75300
Mg1774     Mg  0.82941136  0.74060985  0.47863811     1.58000
H1775       H  0.68839982  0.70209802  0.44536243    -0.06300
C1776       C  0.74254508  0.80120281  0.35005016     0.92800
O1777       O  0.83280285  0.81037545  0.41904188    -0.82600
C1778       C  0.85974283  0.80083052  0.43130532     0.92900
O1779       O  0.63261665  0.77857385  0.48795874    -0.82500
Mg1780     Mg  0.72150409  0.70267013  0.56961635     1.58200
O1781       O  0.76763696  0.80214706  0.37185725    -0.80900
O1782       O  0.78774645  0.71412301  0.64210305    -0.82600
C1783       C  0.74970891  0.65321537  0.85585027     0.45600
H1784       H  0.74893579  0.67749085  0.85724383    -0.03400
C1785       C  0.75234999  0.59624621  0.85318132     0.45700
H1786       H  0.75342461  0.57194753  0.85239363    -0.03400
C1787       C  0.75081343  0.64104129  0.81166238    -0.17100
C1788       C  0.77959554  0.64026400  0.87603882    -0.16800
C1789       C  0.72081755  0.63800070  0.87703526    -0.17200
C1790       C  0.75125859  0.61077169  0.81005266    -0.17200
C1791       C  0.78098445  0.61030307  0.87500774    -0.16700
C1792       C  0.72260720  0.60796155  0.87630745    -0.17100
C1793       C  0.76209986  0.69146564  0.69962576     0.00000
C1794       C  0.73807566  0.69912368  0.72832661    -0.11800
C1795       C  0.73527521  0.68445963  0.76632450     0.02300
C1796       C  0.75570534  0.66049849  0.77495969    -0.00100
C1797       C  0.78083073  0.65403030  0.74705472    -0.11800
C1798       C  0.78443216  0.66945875  0.70991113     0.02100
H1799       H  0.72115045  0.71633158  0.72073292     0.15100
H1800       H  0.79713609  0.63618764  0.75368171     0.15100
C1801       C  0.80997849  0.66098113  0.68175845     0.36800
C1802       C  0.71009456  0.69361590  0.79445440     0.36700
N1803       N  0.83041344  0.65433224  0.65908201    -0.43600
N1804       N  0.68996625  0.70179199  0.81654714    -0.43600
C1805       C  0.74298162  0.84319953  0.23027844     0.00000
C1806       C  0.76371527  0.85263086  0.26122822    -0.11800
C1807       C  0.76319223  0.83989866  0.30040151     0.02300
C1808       C  0.74365848  0.81515414  0.30859982    -0.00100
C1809       C  0.72396782  0.80467155  0.27721673    -0.11800
C1810       C  0.72324542  0.81854156  0.23842929     0.02100
H1811       H  0.77989598  0.87078829  0.25522569     0.15100
H1812       H  0.70858874  0.78592377  0.28326742     0.15100
C1813       C  0.70082617  0.80774190  0.20874695     0.36800
C1814       C  0.78078418  0.85453959  0.33231364     0.36700
N1815       N  0.68276099  0.79860797  0.18537608    -0.43600
N1816       N  0.79456329  0.86662184  0.35780012    -0.43600
C1817       C  0.74163405  0.94110285  0.30231273     0.00000
C1818       C  0.71628445  0.92195038  0.29420990    -0.11800
C1819       C  0.71505121  0.90659676  0.25719932     0.02300
C1820       C  0.73977294  0.91014407  0.22708794    -0.00100
C1821       C  0.76385973  0.93106211  0.23383926    -0.11800
C1822       C  0.76497374  0.94649263  0.27117238     0.02100
H1823       H  0.69792963  0.91797698  0.31775048     0.15100
H1824       H  0.78251504  0.93453878  0.21058280     0.15100
C1825       C  0.78941912  0.96845438  0.27628760     0.36800
C1826       C  0.68886253  0.88633229  0.25246790     0.36700
N1827       N  0.80869358  0.98640485  0.28024055    -0.43600
N1828       N  0.66797791  0.86974839  0.25057461    -0.43600
C1829       C  0.75496184  0.56046887  0.69631509     0.00000
C1830       C  0.73119273  0.58194633  0.70249889    -0.11800
C1831       C  0.72916087  0.59823227  0.73883185     0.02300
C1832       C  0.75101642  0.59301728  0.77107051    -0.00100
C1833       C  0.77346035  0.57021402  0.76595718    -0.11800
C1834       C  0.77617875  0.55450867  0.72888177     0.02100
H1835       H  0.71452871  0.58692476  0.67806044     0.15100
H1836       H  0.78947823  0.56490168  0.79060451     0.15100
C1837       C  0.80094910  0.53250043  0.72537803     0.36800
C1838       C  0.70433188  0.62019694  0.74093862     0.36700
N1839       N  0.82101740  0.01498639  0.72267757    -0.43600
N1840       N  0.68444091  0.63788609  0.74015524    -0.43600
C1841       C  0.55525780  0.83634848  0.39619695     0.00000
C1842       C  0.56317497  0.84175393  0.43748598    -0.11800
C1843       C  0.58739437  0.82578781  0.45708839     0.02300
C1844       C  0.60455757  0.80417119  0.43509353    -0.00100
C1845       C  0.59536636  0.79749985  0.39481014    -0.11800
C1846       C  0.57056909  0.81286150  0.37556332     0.02100
H1847       H  0.55105078  0.85917676  0.45412507     0.15100
H1848       H  0.60808502  0.78049293  0.37797031     0.15100
C1849       C  0.56307330  0.80500498  0.33381577     0.36800
C1850       C  0.59546197  0.83322952  0.49882631     0.36700
N1851       N  0.55749918  0.79786206  0.30053893    -0.43600
N1852       N  0.60190308  0.83914384  0.53232544    -0.43600
C1853       C  0.88956866  0.81519775  0.41557219     0.00000
C1854       C  0.91650658  0.81656425  0.44103691    -0.11800
C1855       C  0.94469794  0.83077644  0.42769827     0.02300
C1856       C  0.94617117  0.84402804  0.38836269    -0.00100
C1857       C  0.91980783  0.84199068  0.36242213    -0.11800
C1858       C  0.89177954  0.82752954  0.37538269     0.02100
H1859       H  0.91539187  0.80690647  0.47168073     0.15100
H1860       H  0.92117815  0.85173243  0.33183547     0.15100
C1861       C  0.86656768  0.82427949  0.34576396     0.36800
C1862       C  0.97158778  0.83172161  0.45510245     0.36700
N1863       N  0.84680899  0.82142138  0.32146582    -0.43600
N1864       N  0.99291596  0.83222677  0.47748213    -0.43600
C1865       C  0.94914473  0.90925713  0.38893908     0.00000
C1866       C  0.92557685  0.91587408  0.36006422    -0.11800
C1867       C  0.89719452  0.93023691  0.37180367     0.02300
C1868       C  0.89232655  0.93913664  0.41320852    -0.00100
C1869       C  0.91668328  0.93351817  0.44177222    -0.11800
C1870       C  0.94465536  0.91820128  0.43012339     0.02100
H1871       H  0.92890321  0.90884778  0.32840877     0.15100
H1872       H  0.91327810  0.94001694  0.47364964     0.15100
C1873       C  0.96772307  0.91086762  0.46123412     0.36800
C1874       C  0.87359844  0.93542381  0.34049428     0.36700
N1875       N  0.98604913  0.90489796  0.48638175    -0.43600
N1876       N  0.85481687  0.93922314  0.31512667    -0.43600
C1877       C  0.56176012  0.90339902  0.39569437     0.00000
C1878       C  0.55357289  0.92531542  0.42407579    -0.11800
C1879       C  0.57718770  0.94187249  0.44345935     0.02300
C1880       C  0.60996525  0.93712766  0.43358399    -0.00100
C1881       C  0.61809084  0.91508096  0.40526301    -0.11800
C1882       C  0.59456968  0.89835850  0.38630154     0.02100
H1883       H  0.52851508  0.92963776  0.43105081     0.15100
H1884       H  0.64312632  0.91106534  0.39735656     0.15100
C1885       C  0.60527782  0.87734590  0.35603504     0.36800
C1886       C  0.56676813  0.96401764  0.47223434     0.36700
N1887       N  0.61503136  0.86057939  0.33235161    -0.43600
N1888       N  0.55792710  0.48144543  0.49552019    -0.43600
C1889       C  0.69224144  0.65448937  0.89251473     0.00000
C1890       C  0.69494046  0.67219301  0.92752522    -0.11800
C1891       C  0.66785934  0.68621464  0.94489075     0.02300
C1892       C  0.63780459  0.68418109  0.92537630    -0.00100
C1893       C  0.63559988  0.66692443  0.88989182    -0.11800
C1894       C  0.66199329  0.65180803  0.87395214     0.02100
H1895       H  0.71789444  0.67378908  0.94258780     0.15100
H1896       H  0.61288991  0.66498972  0.87424797     0.15100
C1897       C  0.65656382  0.63366285  0.83860765     0.36800
C1898       C  0.67110057  0.70023815  0.98431387     0.36700
N1899       N  0.65030053  0.61884741  0.81112773    -0.43600
N1900       N  0.67364161  0.71078327  0.01643499    -0.43600
C1901       C  0.85526149  0.69332412  0.92520782     0.00000
C1902       C  0.85999907  0.67794237  0.88810581    -0.11800
C1903       C  0.83563077  0.66100799  0.87136278     0.02300
C1904       C  0.80559793  0.65902345  0.89175415    -0.00100
C1905       C  0.80009087  0.67517576  0.92769718    -0.11800
C1906       C  0.82457474  0.69196291  0.94490954     0.02100
H1907       H  0.88299307  0.67887479  0.87195481     0.15100
H1908       H  0.77676730  0.67405327  0.94296764     0.15100
C1909       C  0.81725093  0.70714261  0.98283811     0.36800
C1910       C  0.84208811  0.64642072  0.83275927     0.36700
N1911       N  0.81124217  0.71916978  0.01331010    -0.43600
N1912       N  0.84797338  0.63494300  0.80184656    -0.43600
C1913       C  0.63877017  0.81033528  0.07088818     0.00000
C1914       C  0.63158376  0.83050260  0.10224038    -0.11800
C1915       C  0.65544349  0.84749983  0.11999169     0.02300
C1916       C  0.68779564  0.84428971  0.10699318    -0.00100
C1917       C  0.69525857  0.82405329  0.07597641    -0.11800
C1918       C  0.67114789  0.80761128  0.05721395     0.02100
H1919       H  0.60696252  0.83326919  0.11299716     0.15100
H1920       H  0.72003326  0.82163129  0.06564801     0.15100
C1921       C  0.68061427  0.78857781  0.02385199     0.36800
C1922       C  0.64542250  0.86755934  0.15180069     0.36700
N1923       N  0.68853716  0.77379438  0.99669254    -0.43600
N1924       N  0.63572654  0.88364350  0.17643556    -0.43600
C1925       C  0.79840277  0.83903196  0.10911816     0.00000
C1926       C  0.80596607  0.84080013  0.06670125    -0.11800
C1927       C  0.83332830  0.82672144  0.05024143     0.02300
C1928       C  0.85417785  0.81149319  0.07667520    -0.00100
C1929       C  0.84576001  0.80850177  0.11845115    -0.11800
C1930       C  0.81782250  0.82139104  0.13462096     0.02100
H1931       H  0.79102306  0.85397030  0.04671528     0.15100
H1932       H  0.86134729  0.79617170  0.13870799     0.15100
C1933       C  0.81121325  0.81726805  0.17800149     0.36800
C1934       C  0.84031172  0.82921008  0.00663606     0.36700
N1935       N  0.80726451  0.81274241  0.21284633    -0.43600
N1936       N  0.84590727  0.83098083  0.97162968    -0.43600
C1937       C  0.00117665  0.81484917  0.19378314     0.00000
C1938       C  0.52843211  0.83124810  0.20361990    -0.11800
C1939       C  0.53025883  0.84624913  0.24082616     0.02300
C1940       C  0.50447570  0.84494664  0.26956212    -0.00100
C1941       C  0.97757396  0.82774194  0.26056188    -0.11800
C1942       C  0.97558870  0.81291702  0.22282682     0.02100
H1943       H  0.54837142  0.83277996  0.18172153     0.15100
H1944       H  0.95790836  0.82622044  0.28277796     0.15100
C1945       C  0.94763514  0.79523545  0.21522956     0.36800
C1946       C  0.55953585  0.86183182  0.24896934     0.36700
N1947       N  0.92527451  0.78096445  0.20920427    -0.43600
N1948       N  0.58342521  0.87400655  0.25427932    -0.43600
C1949       C  0.55777211  0.65626260  0.60928288     0.00000
C1950       C  0.57663557  0.66894669  0.63973761    -0.11800
C1951       C  0.60527816  0.68340123  0.62925985     0.02300
C1952       C  0.61442333  0.68678251  0.58737212    -0.00100
C1953       C  0.59498761  0.67494192  0.55683846    -0.11800
C1954       C  0.56721575  0.65917262  0.56748495     0.02100
H1955       H  0.56944269  0.66674603  0.67191844     0.15100
H1956       H  0.60210323  0.67722970  0.52463394     0.15100
C1957       C  0.54938465  0.64589861  0.53487197     0.36800
C1958       C  0.62473724  0.69462877  0.66201124     0.36700
N1959       N  0.53604307  0.63519516  0.50788211    -0.43600
N1960       N  0.64039233  0.70338634  0.68836200    -0.43600
C1961       C  0.94515791  0.65844903  0.60112050     0.00000
C1962       C  0.92632038  0.67552426  0.62760038    -0.11800
C1963       C  0.90193809  0.69342959  0.61267596     0.02300
C1964       C  0.89556471  0.69412315  0.56995419    -0.00100
C1965       C  0.91426385  0.67675066  0.54324308    -0.11800
C1966       C  0.93864291  0.65865190  0.55853375     0.02100
H1967       H  0.92999248  0.67404134  0.66050157     0.15100
H1968       H  0.90910141  0.67654441  0.51057318     0.15100
C1969       C  0.95542710  0.63971469  0.53008415     0.36800
C1970       C  0.88430170  0.71113684  0.64208116     0.36700
N1971       N  0.96787874  0.62418813  0.50674988    -0.43600
N1972       N  0.87025520  0.72526834  0.66575999    -0.43600
C1973       C  0.89452314  0.55749456  0.56936191     0.00000
C1974       C  0.88766969  0.57698648  0.60166921    -0.11800
C1975       C  0.91170342  0.59365794  0.61957774     0.02300
C1976       C  0.94362051  0.59181152  0.60465496    -0.00100
C1977       C  0.95094586  0.57174457  0.57327140    -0.11800
C1978       C  0.92681444  0.55468558  0.55545490     0.02100
H1979       H  0.86324872  0.57920449  0.61342608     0.15100
H1980       H  0.97558151  0.56963812  0.56233671     0.15100
C1981       C  0.93616871  0.53395940  0.52406674     0.36800
C1982       C  0.90266375  0.61133153  0.65444932     0.36700
N1983       N  0.94376382  0.01735596  0.49894535    -0.43600
N1984       N  0.89400636  0.62507953  0.68227793    -0.43600
C1985       C  0.61123971  0.56024520  0.58294439     0.00000
C1986       C  0.61045245  0.57297706  0.62227385    -0.11800
C1987       C  0.58342645  0.58817675  0.63665594     0.02300
C1988       C  0.55617027  0.59070002  0.61172374    -0.00100
C1989       C  0.55637123  0.57740469  0.57287888    -0.11800
C1990       C  0.58374690  0.56258080  0.55805036     0.02100
H1991       H  0.63122717  0.57127665  0.64189262     0.15100
H1992       H  0.53560773  0.57971444  0.55339089     0.15100
C1993       C  0.58381947  0.55210117  0.51616223     0.36800
C1994       C  0.58463329  0.60133036  0.67692504     0.36700
N1995       N  0.58403753  0.54407507  0.48238716    -0.43600
N1996       N  0.58615859  0.61174714  0.70924660    -0.43600
C1997       C  0.50202209  0.66038111  0.72498358     0.00000
C1998       C  0.52055472  0.64925333  0.75749450    -0.11800
C1999       C  0.51975890  0.66177932  0.79679907     0.02300
C2000       C  0.00078725  0.68693168  0.80444713    -0.00100
C2001       C  0.98524612  0.70011164  0.77109503    -0.11800
C2002       C  0.98664778  0.68784186  0.73143417     0.02100
H2003       H  0.53498011  0.62983224  0.75279955     0.15100
H2004       H  0.97225801  0.72043977  0.77593114     0.18300
C2005       C  0.97372187  0.70539699  0.69864006     0.36800
C2006       C  0.53720730  0.64708080  0.82906596     0.36700
N2007       N  0.96425849  0.72106044  0.67337920    -0.43600
N2008       N  0.55121318  0.63515959  0.85475235    -0.43600
C2009       C  0.85755819  0.55656897  0.92238118     0.00000
C2010       C  0.83716094  0.57175040  0.94972725    -0.11800
C2011       C  0.81279230  0.59008199  0.93509215     0.02300
C2012       C  0.80764135  0.59262228  0.89231412    -0.00100
C2013       C  0.82823173  0.57784928  0.86503148    -0.11800
C2014       C  0.85311209  0.56012488  0.87939931     0.02100
H2015       H  0.84088353  0.57001264  0.98267980     0.15100
H2016       H  0.82559231  0.58092368  0.83225862     0.15100
C2017       C  0.87333029  0.54576132  0.84904633     0.36800
C2018       C  0.79444337  0.60674284  0.96477175     0.36700
N2019       N  0.88948568  0.53446656  0.82449464    -0.43600
N2020       N  0.78088166  0.62038577  0.98941464    -0.43600
C2021       C  0.64001922  0.55829155  0.91481716     0.00000
C2022       C  0.65690547  0.57409313  0.94419509    -0.11800
C2023       C  0.68488453  0.58933755  0.93309488     0.02300
C2024       C  0.69666925  0.58834368  0.89199948    -0.00100
C2025       C  0.68131734  0.57031843  0.86362607    -0.11800
C2026       C  0.65266283  0.55598768  0.87436102     0.02100
H2027       H  0.64755664  0.57536608  0.97557052     0.15100
H2028       H  0.69047700  0.56911808  0.83215384     0.15100
C2029       C  0.63658979  0.53935724  0.84321597     0.36800
C2030       C  0.70056313  0.60589272  0.96457953     0.36700
N2031       N  0.62395464  0.52609445  0.81794228    -0.43600
N2032       N  0.71213731  0.61911299  0.99072245    -0.43600
C2033       C  0.99337522  0.59271107  0.72573579     0.00000
C2034       C  0.51590378  0.57012718  0.73133793    -0.11800
C2035       C  0.51631977  0.55362543  0.76795674     0.02300
C2036       C  0.99291829  0.55871080  0.79894715    -0.00100
C2037       C  0.96929958  0.58005210  0.79239044    -0.11800
C2038       C  0.96957364  0.59733148  0.75665287     0.02100
H2039       H  0.53395633  0.56601049  0.70763738     0.15100
H2040       H  0.95142066  0.58428923  0.81636189     0.15100
C2041       C  0.94621326  0.62058338  0.75423124     0.36800
C2042       C  0.54061274  0.53138482  0.77274839     0.36700
N2043       N  0.92788603  0.63963991  0.75419333    -0.43600
N2044       N  0.56001735  0.51345514  0.77643668    -0.43600
C2045       C  0.80365495  0.90550769  0.11025184     0.00000
C2046       C  0.83418850  0.89565649  0.12146206    -0.11800
C2047       C  0.86211548  0.90777064  0.10430102     0.02300
C2048       C  0.86036715  0.93301005  0.07860894    -0.00100
C2049       C  0.82976208  0.94379587  0.06864994    -0.11800
C2050       C  0.80160127  0.93012193  0.08365700     0.02100
H2051       H  0.83640140  0.87779943  0.14335003     0.15100
H2052       H  0.82771342  0.96300084  0.04901025     0.15100
C2053       C  0.77120913  0.94195630  0.07087711     0.36800
C2054       C  0.89182485  0.89257440  0.11250559     0.36700
N2055       N  0.74720324  0.95216352  0.06048037    -0.43600
N2056       N  0.91539656  0.88003218  0.11899252    -0.43600
C2057       C  0.64208704  0.94546895  0.07289963     0.00000
C2058       C  0.66063895  0.92755492  0.04668628    -0.11800
C2059       C  0.68540088  0.91016201  0.06228917     0.02300
C2060       C  0.69234062  0.91106821  0.10464284    -0.00100
C2061       C  0.67548901  0.93051609  0.13023591    -0.11800
C2062       C  0.64994127  0.94706226  0.11511614     0.02100
H2063       H  0.65515943  0.92644330  0.01415616     0.15100
H2064       H  0.68122617  0.93158543  0.16271561     0.15100
C2065       C  0.63214034  0.96520077  0.14379600     0.36800
C2066       C  0.70395357  0.89226034  0.03415004     0.36700
N2067       N  0.61778389  0.97949612  0.16697278    -0.43600
N2068       N  0.71893292  0.87801220  0.01157360    -0.43600
C2069       C  0.00499267  0.91119280  0.27406921     0.00000
C2070       C  0.97689958  0.91097215  0.25092492    -0.11800
C2071       C  0.97447049  0.92756001  0.21454921     0.02300
C2072       C  0.00158152  0.94299032  0.19859038    -0.00100
C2073       C  0.52890930  0.94474004  0.22351770    -0.11800
C2074       C  0.53030527  0.92989797  0.26155133     0.02100
H2075       H  0.95659574  0.89795283  0.26160524     0.15100
H2076       H  0.54956012  0.95738157  0.21309882     0.15100
C2077       C  0.55836717  0.93369738  0.28640141     0.36800
C2078       C  0.94335254  0.92940871  0.19585266     0.36700
N2079       N  0.58099669  0.93727221  0.30593868    -0.43600
N2080       N  0.91807600  0.93158096  0.18189653    -0.43600
loop_ 
_geom_bond_atom_site_label_1 
_geom_bond_atom_site_label_2 
_geom_bond_distance 
_geom_bond_site_symmetry_2 
_ccdc_geom_bond_type 
O1           C36   1.238       .  S
O1           Mg9   2.145       .  S
O1        Mg1043   2.156       .  S
C2           O15   1.235       .  S
C2           O39   1.269       .  A
C2           H41   1.081       .  S
Mg3          O32   2.143       .  S
Mg3        O1041   2.156   1_455  S
Mg3          O47   2.316       .  S
Mg3          O43   2.267       .  S
Mg3          O14   2.300       .  S
O4          C545   1.237       .  S
O4          Mg46   2.148       .  S
O4         Mg549   2.144       .  S
O5           C36   1.273       .  A
O5          Mg29   2.312   1_556  S
C6            O8   1.273       .  A
C6           O20   1.274       .  A
C6          C497   1.480       .  S
O7         C1075   1.271       .  A
O7         Mg529   2.304       .  S
O8          Mg40   2.269   1_554  S
Mg9         O535   2.138   1_545  S
Mg9          O23   2.245       .  S
Mg9          O11   2.275       .  S
Mg9         O527   2.304   1_545  S
C10          O48   1.275       .  A
C10        O1056   1.275   1_455  A
C10        C1552   1.501       .  S
O11          C18   1.271       .  A
H12          C25   1.081       .  S
C13          O27   1.236       .  S
C13          O28   1.269   1_554  A
C13          H38   1.081       .  S
O14          C37   1.270   1_556  A
O15        Mg529   2.138       .  S
O15        Mg549   2.159   1_556  S
O16        C1050   1.275       .  A
O16         Mg46   2.311       .  S
C17          O30   1.269       .  A
C17          O22   1.281       .  A
C17         C488   1.496       .  S
C18          O45   1.275       .  A
C18         C449   1.485       .  S
Mg19         O27   2.152       .  S
Mg19        O546   2.146       .  S
Mg19         O20   2.287       .  S
Mg19         O48   2.285       .  S
Mg19        O541   2.294   1_455  S
O21        C1065   1.270       .  A
O21        Mg539   2.294   1_645  S
O22        Mg549   2.351       .  S
O23          C42   1.269       .  A
O24          C44   1.274       .  A
O24        Mg560   2.304   1_545  S
C25         O524   1.237   1_545  S
C25        O1061   1.270       .  A
O26          C37   1.236       .  S
O26        Mg539   2.146   1_545  S
O26        Mg560   2.162   1_544  S
O27       Mg1086   2.123   1_455  S
O28         Mg40   2.287       .  S
Mg29        O524   2.144   1_545  S
Mg29        O535   2.159   1_544  S
Mg29         O45   2.287   1_554  S
Mg29        O542   2.351   1_545  S
O30         Mg46   2.230       .  S
H31          C36   1.081       .  S
O32         C555   1.236   1_545  S
O32        Mg560   2.146   1_545  S
H33          C35   1.081       .  S
H34          C37   1.081       .  S
C35         O552   1.236       .  S
C35        O1047   1.271       .  A
O39         Mg46   2.296   1_556  S
Mg40        O546   2.162   1_556  S
Mg40        O552   2.146       .  S
Mg40        O544   2.304       .  S
C42        O1087   1.274       .  A
C42         C476   1.476       .  S
O43          C44   1.272       .  A
C44         C461   1.470       .  S
Mg46       O1067   2.123       .  S
O47        C1082   1.274   1_455  A
C49          C55   1.530       .  S
C49          C53   1.543       .  S
C49        C1094   1.535       .  S
C49        H1090   1.111       .  S
H50        C1089   1.111       .  S
C51          C58   1.547       .  S
C51        C1097   1.533       .  S
C51        C1096   1.547       .  S
C51          H52   1.106       .  S
C53         C473   1.493       .  S
C53        C1096   1.391       .  D
C54        C1089   1.535   1_455  S
C54         C428   1.484       .  S
C54          C57   1.368       .  D
C55         C416   1.490       .  S
C55          C58   1.372       .  D
C56        C1091   1.547       .  S
C56         C437   1.519   1_655  S
C56        C1093   1.391       .  D
C57        C1091   1.533   1_455  S
C57         C389   1.482       .  S
C58         C401   1.483       .  S
O59          C94   1.237       .  S
O59         Mg67   2.149       .  S
O59       Mg1101   2.160   1_455  S
C60          O73   1.235       .  S
C60          O97   1.268       .  A
C60          H99   1.081       .  S
Mg61         O90   2.142       .  S
Mg61       O1099   2.160       .  S
Mg61        O105   2.330       .  S
Mg61        O101   2.272       .  S
Mg61         O72   2.305   1_554  S
O62          C83   1.236       .  S
O62        Mg104   2.151       .  S
O62         Mg87   2.137       .  S
O63          C94   1.273   1_556  A
O63         Mg87   2.311       .  S
C64          O66   1.272       .  A
C64          O78   1.276       .  A
C64         C341   1.492       .  S
O65        C1133   1.272       .  A
O65         Mg67   2.306   1_655  S
O66         Mg98   2.266   1_556  S
Mg67         O73   2.127       .  S
Mg67         O81   2.239       .  S
Mg67         O69   2.293       .  S
C68         O106   1.276       .  A
C68        O1114   1.273       .  A
C68         C440   1.492       .  S
O69          C76   1.275       .  A
H70          C83   1.081       .  S
C71          O85   1.236       .  S
C71          O86   1.269   1_556  A
C71          H96   1.081       .  S
O72          C95   1.271       .  A
O73         Mg87   2.156   1_554  S
O74        C1108   1.273   1_455  A
O74        Mg104   2.293       .  S
C75          O88   1.271       .  A
C75          O80   1.277       .  A
C75         C332   1.490       .  S
C76         O103   1.272       .  A
C76         C353   1.492       .  S
Mg77         O84   2.156       .  S
Mg77         O85   2.154       .  S
Mg77         O78   2.292       .  S
Mg77         O79   2.292       .  S
Mg77        O106   2.301       .  S
O79        C1123   1.270       .  A
O80         Mg87   2.332       .  S
O81        C1140   1.270       .  A
O82         C102   1.276       .  A
O82         Mg98   2.326       .  S
C83        O1119   1.270       .  A
O84          C95   1.236       .  S
O84         Mg98   2.159   1_556  S
O85       Mg1144   2.128       .  S
O86         Mg98   2.293       .  S
Mg87        O103   2.273   1_556  S
O88        Mg104   2.231       .  S
H89          C94   1.081       .  S
O90          C93   1.237       .  S
O90         Mg98   2.152       .  S
H91          C93   1.081       .  S
H92          C95   1.081       .  S
C93        O1105   1.272       .  A
O97        Mg104   2.286   1_554  S
C100        O105   1.276       .  A
C100       O1121   1.270       .  A
C100        C377   1.482       .  S
O101        C102   1.274       .  A
C102        C368   1.479       .  S
Mg104      O1125   2.128   1_455  S
C107        C113   1.537       .  S
C107        C111   1.534       .  S
C107       C1152   1.544       .  S
C107       H1148   1.111       .  S
H108       C1147   1.111       .  S
C109        C116   1.533       .  S
C109       C1155   1.538       .  S
C109       C1154   1.543       .  S
C109        H110   1.111       .  S
C111        C509   1.493       .  S
C111       C1154   1.376       .  D
C112       C1147   1.544       .  S
C112        C317   1.490       .  S
C112        C115   1.381       .  D
C113        C305   1.485       .  S
C113        C116   1.369       .  D
C114       C1149   1.543       .  S
C114        C380   1.488       .  S
C114       C1151   1.376       .  D
C115       C1149   1.538       .  S
C115        C281   1.497       .  S
C116        C296   1.480       .  S
O117        C152   1.236       .  S
O117       Mg119   2.141       .  S
O117       Mg125   2.154       .  S
C118        O131   1.236       .  S
C118        O155   1.271       .  A
C118        H157   1.081       .  S
Mg119       O148   2.153       .  S
Mg119       O163   2.288       .  S
Mg119       O159   2.255       .  S
Mg119       O130   2.287       .  S
O120        C661   1.238       .  S
O120       Mg162   2.146       .  S
O120       Mg665   2.155       .  S
O121        C152   1.271       .  A
O121       Mg145   2.302       .  S
C122        O124   1.273       .  A
C122        O136   1.273       .  A
C122        C320   1.485       .  S
O123        C151   1.270       .  A
O123       Mg645   2.296       .  S
O124       Mg156   2.280       .  S
Mg125       O651   2.158   1_545  S
Mg125       O139   2.300       .  S
Mg125       O127   2.286       .  S
Mg125       O643   2.296   1_545  S
C126        O164   1.269       .  A
C126        O132   1.277       .  A
C126        C257   1.481       .  S
O127        C134   1.275       .  A
H128        C141   1.081       .  S
C129        O143   1.238       .  S
C129        O144   1.273       .  A
C129        H154   1.081       .  S
O130        C153   1.267       .  A
O131       Mg645   2.158       .  S
O131       Mg665   2.165       .  S
O132       Mg162   2.336       .  S
C133        O146   1.273       .  A
C133        O138   1.279       .  A
C133        C308   1.490       .  S
C134        O161   1.274       .  A
C134        C413   1.492       .  S
Mg135       O143   2.143       .  S
Mg135       O662   2.122       .  S
Mg135       O136   2.282       .  S
Mg135       O164   2.240       .  S
Mg135       O657   2.305       .  S
O137        C141   1.272       .  A
O137       Mg655   2.305   1_545  S
O138       Mg665   2.338       .  S
O139        C158   1.275       .  A
O140        C160   1.277       .  A
O140       Mg676   2.324   1_545  S
C141        O640   1.238   1_545  S
O142        C153   1.234       .  S
O142       Mg655   2.122   1_545  S
O142       Mg676   2.152   1_545  S
O143       Mg162   2.153       .  S
O144       Mg156   2.309       .  S
Mg145       O640   2.155   1_545  S
Mg145       O651   2.165   1_545  S
Mg145       O161   2.287       .  S
Mg145       O658   2.338   1_545  S
O146       Mg162   2.265       .  S
H147        C152   1.081       .  S
O148        C671   1.237   1_545  S
O148       Mg676   2.140   1_545  S
H149        C151   1.081       .  S
H150        C153   1.081       .  S
C151        O668   1.237       .  S
O155       Mg162   2.306       .  S
Mg156       O662   2.152       .  S
Mg156       O668   2.140       .  S
Mg156       O660   2.324       .  S
C158        O163   1.274       .  A
C158        C269   1.496       .  S
O159        C160   1.273       .  A
C160        C425   1.486       .  S
C165        C171   1.542       .  S
C165        C170   1.536       .  S
C165        C169   1.543       .  S
C165        H166   1.109       .  S
C167        C173   1.542       .  S
C167        C172   1.535       .  S
C167        C174   1.531       .  S
C167        H168   1.110       .  S
C169        C245   1.499       .  S
C169        C172   1.382       .  D
C170        C365   1.495       .  S
C170        C173   1.381       .  D
C171        C356   1.489       .  S
C171        C174   1.374       .  D
C172        C260   1.496       .  S
C173        C485   1.500       .  S
C174        C500   1.481       .  S
O175        C210   1.236       .  S
O175       Mg177   2.147       .  S
O175       Mg183   2.164       .  S
C176        O189   1.236       .  S
C176        O213   1.270       .  A
C176        H215   1.081       .  S
Mg177       O206   2.152       .  S
Mg177       O221   2.280       .  S
Mg177       O217   2.258       .  S
Mg177       O188   2.288       .  S
O178        C199   1.237       .  S
O178       Mg220   2.145       .  S
O178       Mg203   2.147       .  S
O179        C210   1.270       .  A
O179       Mg203   2.298       .  S
C180        O182   1.274       .  A
C180        O194   1.271       .  A
C180        C404   1.480       .  S
O181        C209   1.269       .  A
O181       Mg183   2.295       .  S
O182       Mg214   2.284       .  S
Mg183       O189   2.142       .  S
Mg183       O197   2.274       .  S
Mg183       O185   2.291       .  S
C184        O222   1.268       .  A
C184        O190   1.274       .  A
C184        C233   1.474       .  S
O185        C192   1.274       .  A
H186        C199   1.081       .  S
C187        O201   1.236       .  S
C187        O202   1.270       .  A
C187        H212   1.081       .  S
O188        C211   1.268       .  A
O189       Mg203   2.162       .  S
O190       Mg220   2.306       .  S
C191        O204   1.271       .  A
C191        O196   1.276       .  A
C191        C392   1.474       .  S
C192        O219   1.273       .  A
C192        C284   1.480       .  S
Mg193       O200   2.126       .  S
Mg193       O201   2.145       .  S
Mg193       O194   2.266       .  S
Mg193       O195   2.303       .  S
Mg193       O222   2.247       .  S
O195        C199   1.272       .  A
O196       Mg203   2.316       .  S
O197        C216   1.273       .  A
O198        C218   1.278       .  A
O198       Mg214   2.324       .  S
O200        C211   1.234       .  S
O200       Mg214   2.161       .  S
O201       Mg220   2.142       .  S
O202       Mg214   2.301       .  S
Mg203       O219   2.282       .  S
O204       Mg220   2.257       .  S
H205        C210   1.081       .  S
O206        C209   1.236       .  S
O206       Mg214   2.139       .  S
H207        C209   1.081       .  S
H208        C211   1.081       .  S
O213       Mg220   2.301       .  S
C216        O221   1.273       .  A
C216        C248   1.483       .  S
O217        C218   1.272       .  A
C218        C293   1.486       .  S
C223        C229   1.539       .  S
C223        C228   1.532       .  S
C223        C227   1.541       .  S
C223        H224   1.110       .  S
C225        C231   1.540       .  S
C225        C230   1.545       .  S
C225        C232   1.535       .  S
C225        H226   1.111       .  S
C227        C236   1.491       .  S
C227        C230   1.384       .  D
C228        C344   1.481       .  S
C228        C231   1.370       .  D
C229        C329   1.490       .  S
C229        C232   1.374       .  D
C230        C272   1.507       .  S
C231        C452   1.487       .  S
C232        C464   1.485       .  S
C233        C234   1.401       .  A
C233        C238   1.411       .  A
C234        H239   1.085       .  S
C234        C235   1.401       .  A
C235        C236   1.415       .  A
C235        C242   1.442       .  S
C236        C237   1.404       .  A
C237        H240   1.083       .  S
C237        C238   1.397       .  A
C238        C241   1.445       .  S
C241        N243   1.157       .  T
C242        N244   1.157       .  T
C245        C246   1.405       .  A
C245        C250   1.416       .  A
C246        H251   1.084       .  S
C246        C247   1.393       .  A
C247        C248   1.414       .  A
C247        C254   1.446       .  S
C248        C249   1.405       .  A
C249        H252   1.085       .  S
C249        C250   1.405       .  A
C250        C253   1.442       .  S
C253        N255   1.157       .  T
C254        N256   1.158       .  T
C257        C258   1.401       .  A
C257        C262   1.410       .  A
C258        H263   1.086       .  S
C258        C259   1.396       .  A
C259        C260   1.415       .  A
C259        C266   1.442       .  S
C260        C261   1.407       .  A
C261        H264   1.085       .  S
C261        C262   1.407       .  A
C262        C265   1.442       .  S
C265        N267   1.157       .  T
C266        N268   1.157       .  T
C269        C270   1.406       .  A
C269        C274   1.413       .  A
C270        H275   1.085       .  S
C270        C271   1.399       .  A
C271        C272   1.416       .  A
C271        C278   1.441       .  S
C272        C273   1.408       .  A
C273        H276   1.076       .  S
C273        C274   1.407       .  A
C274        C277   1.443       .  S
C277        N799   1.157       .  T
C278        N280   1.157       .  T
N279        C797   1.157       .  T
C281        C282   1.408       .  A
C281        C286   1.414       .  A
C282        H287   1.084       .  S
C282        C283   1.402       .  A
C283        C284   1.409       .  A
C283        C290   1.443       .  S
C284        C285   1.403       .  A
C285        H288   1.085       .  S
C285        C286   1.401       .  A
C286        C289   1.442       .  S
C289        N291   1.157       .  T
C290        N292   1.157       .  T
C293        C294   1.406       .  A
C293        C298   1.417       .  A
C294        H299   1.085       .  S
C294        C295   1.403       .  A
C295        C296   1.408       .  A
C295        C302   1.442       .  S
C296        C297   1.398       .  A
C297        H300   1.085       .  S
C297        C298   1.399       .  A
C298        C301   1.443       .  S
C301        N303   1.157       .  T
C302        N304   1.157       .  T
C305        C306   1.399       .  A
C305        C310   1.409       .  A
C306        H311   1.084       .  S
C306        C307   1.400       .  A
C307        C308   1.417       .  A
C307        C314   1.443       .  S
C308        C309   1.407       .  A
C309        H312   1.084       .  S
C309        C310   1.406       .  A
C310        C313   1.442       .  S
C313        N315   1.157       .  T
C314        N316   1.157       .  T
C317        C318   1.402       .  A
C317        C322   1.414       .  A
C318        H323   1.082       .  S
C318        C319   1.401       .  A
C319        C320   1.414       .  A
C319        C326   1.443       .  S
C320        C321   1.405       .  A
C321        H324   1.085       .  S
C321        C322   1.396       .  A
C322        C325   1.443       .  S
C325        N327   1.157       .  T
C326        N848   1.157       .  T
N328        C846   1.157       .  T
C329        C330   1.405       .  A
C329        C334   1.411       .  A
C330        H335   1.084       .  S
C330        C331   1.408       .  A
C331        C332   1.415       .  A
C331        C338   1.442       .  S
C332        C333   1.404       .  A
C333        H336   1.085       .  S
C333        C334   1.392       .  A
C334        C337   1.440       .  S
C337        N339   1.156       .  T
C338        N340   1.157   1_556  T
C341        C342   1.408       .  A
C341        C346   1.420       .  A
C342        H347   1.084       .  S
C342        C343   1.396       .  A
C343        C344   1.408       .  A
C343        C350   1.443       .  S
C344        C345   1.399       .  A
C345        H348   1.084       .  S
C345        C346   1.402       .  A
C346        C349   1.444       .  S
C349        N351   1.158   1_556  T
C350        N352   1.157       .  T
C353        C354   1.405       .  A
C353        C358   1.418       .  A
C354        H359   1.085       .  S
C354        C355   1.396       .  A
C355        C356   1.413       .  A
C355        C362   1.441       .  S
C356        C357   1.402       .  A
C357        H360   1.085       .  S
C357        C358   1.404       .  A
C358        C361   1.442       .  S
C361        N363   1.157   1_554  T
C362        N364   1.157       .  T
C365        C366   1.408       .  A
C365        C370   1.414       .  A
C366        H371   1.085       .  S
C366        C367   1.407       .  A
C367        C368   1.410       .  A
C367        C374   1.442       .  S
C368        C369   1.399       .  A
C369        H372   1.085       .  S
C369        C370   1.399       .  A
C370        C373   1.440       .  S
C373        N375   1.156       .  T
C374        N376   1.157   1_554  T
C377        C382   1.413       .  A
C377       C1418   1.403       .  A
C378        H383   1.085       .  S
C378        C379   1.395       .  A
C378       C1417   1.403       .  A
C379        C380   1.411       .  A
C379        C386   1.442       .  S
C380       C1421   1.405   1_455  A
C381        H384   1.084       .  S
C381        C382   1.406       .  A
C381       C1420   1.405       .  A
C382        C385   1.443       .  S
C385        N387   1.157       .  T
C386        N388   1.156       .  T
C389        C390   1.401       .  A
C389        C394   1.410       .  A
C390        H395   1.085       .  S
C390        C391   1.400       .  A
C391        C392   1.412       .  A
C391        C398   1.444       .  S
C392        C393   1.401       .  A
C393        H396   1.085       .  S
C393        C394   1.400       .  A
C394        C397   1.440       .  S
C397        N399   1.156       .  T
C398        N400   1.157       .  T
C401        C402   1.395       .  A
C401        C406   1.412       .  A
C402        H407   1.082       .  S
C402        C403   1.394       .  A
C403        C404   1.415       .  A
C403        C410   1.445       .  S
C404        C405   1.404       .  A
C405        H408   1.085       .  S
C405        C406   1.403       .  A
C406        C409   1.441       .  S
C409        N411   1.157       .  T
C410        N412   1.157       .  T
C413        C414   1.405       .  A
C413        C418   1.417       .  A
C414        H419   1.085       .  S
C414        C415   1.395       .  A
C415        C416   1.410       .  A
C415        C422   1.439       .  S
C416        C417   1.404       .  A
C417        H420   1.084       .  S
C417        C418   1.407       .  A
C418        C421   1.443       .  S
C421        N943   1.157       .  T
C422        N424   1.156       .  T
N423        C941   1.157       .  T
C425        C426   1.405       .  A
C425        C430   1.416       .  A
C426        H431   1.085       .  S
C426        C427   1.397       .  A
C427        C428   1.409       .  A
C427        C434   1.443       .  S
C428        C429   1.402       .  A
C429        H432   1.084       .  S
C429        C430   1.405       .  A
C430        C433   1.443       .  S
C433        N435   1.157       .  T
C434        N436   1.157       .  T
C437        C438   1.409       .  A
C437       C1482   1.423   1_455  A
C438        H443   1.081       .  S
C438        C439   1.401       .  A
C439       C1480   1.415       .  A
C439        C446   1.445       .  S
C440        C441   1.402       .  A
C440       C1479   1.415       .  A
C441        H444   1.085       .  S
C441        C442   1.407       .  A
C442       C1477   1.423       .  A
C442        C445   1.439       .  S
C445        N447   1.158       .  T
C446        N448   1.157       .  T
C449        C450   1.404       .  A
C449        C454   1.417       .  A
C450        H455   1.085       .  S
C450        C451   1.402       .  A
C451        C452   1.411       .  A
C451        C458   1.440       .  S
C452        C453   1.398       .  A
C453        H456   1.078       .  S
C453        C454   1.398       .  A
C454        C457   1.445       .  S
C457        N459   1.157       .  T
C458        N460   1.156       .  T
C461        C462   1.399       .  A
C461        C466   1.410       .  A
C462        H467   1.085       .  S
C462        C463   1.399       .  A
C463        C464   1.413       .  A
C463        C470   1.440       .  S
C464        C465   1.402       .  A
C465        H468   1.085       .  S
C465        C466   1.399       .  A
C466        C469   1.442       .  S
C469        N471   1.157       .  T
C470        N472   1.156       .  T
C473        C478   1.415       .  A
C473       C1514   1.406       .  A
C474        H479   1.083       .  S
C474        C475   1.402       .  A
C474       C1513   1.406   1_455  A
C475       C1516   1.408   1_455  A
C475        C482   1.442       .  S
C476        C477   1.402       .  A
C476       C1515   1.408       .  A
C477        H480   1.086       .  S
C477        C478   1.397       .  A
C478        C481   1.442       .  S
C481        N483   1.157       .  T
C482        N484   1.157       .  T
C485        C486   1.401       .  A
C485        C490   1.415       .  A
C486        H491   1.082       .  S
C486        C487   1.394       .  A
C487        C488   1.420       .  A
C487        C494   1.446       .  S
C488        C489   1.408       .  A
C489        H492   1.084       .  S
C489        C490   1.407       .  A
C490        C493   1.442       .  S
C493        N495   1.157       .  T
C494        N496   1.158       .  T
C497        C498   1.405       .  A
C497        C502   1.415       .  A
C498        H503   1.085       .  S
C498        C499   1.400       .  A
C499        C500   1.409       .  A
C499        C506   1.443       .  S
C500        C501   1.400       .  A
C501        H504   1.085       .  S
C501        C502   1.398       .  A
C502        C505   1.445       .  S
C505        N507   1.157       .  T
C506        N508   1.157       .  T
C509        C510   1.401       .  A
C509       C1554   1.410       .  A
C510        H515   1.085       .  S
C510        C511   1.402       .  A
C511        C512   1.420       .  A
C511        C518   1.442       .  S
C512       C1050   1.501       .  S
C512       C1553   1.410       .  A
C513        H516   1.084       .  S
C513        C514   1.405       .  A
C513       C1552   1.410       .  A
C514       C1549   1.410       .  A
C514        C517   1.442       .  S
C517        N519   1.157       .  T
C518        N520   1.157       .  T
O521        C556   1.238       .  S
O521      Mg1563   2.156       .  S
O521       Mg529   2.145       .  S
C522        O535   1.235       .  S
C522        O559   1.269       .  A
C522        H561   1.081       .  S
Mg523      O1561   2.156   1_455  S
Mg523       O552   2.143       .  S
Mg523       O567   2.316       .  S
Mg523       O563   2.267       .  S
Mg523       O534   2.300       .  S
O524       Mg566   2.148       .  S
O525        C556   1.273       .  A
O525       Mg549   2.313   1_556  S
C526        O528   1.273       .  A
C526        O540   1.274       .  A
C526       C1017   1.480       .  S
O527       C1595   1.271       .  A
O528       Mg560   2.269   1_554  S
Mg529       O543   2.245       .  S
Mg529       O531   2.275       .  S
C530        O568   1.275       .  A
C530       O1576   1.275   1_455  A
C530       C2072   1.501       .  S
O531        C538   1.271       .  A
H532        C545   1.081       .  S
C533        O547   1.236       .  S
C533        O548   1.269   1_554  A
C533        H558   1.081       .  S
O534        C557   1.270   1_556  A
O536       C1570   1.275       .  A
O536       Mg566   2.310       .  S
C537        O550   1.269       .  A
C537        O542   1.281       .  A
C537       C1008   1.496       .  S
C538        O565   1.275       .  A
C538        C969   1.485       .  S
Mg539       O547   2.152       .  S
Mg539       O540   2.287       .  S
Mg539       O568   2.285       .  S
O541       C1585   1.270       .  A
O543        C562   1.269       .  A
O544        C564   1.274       .  A
C545       O1581   1.270       .  A
O546        C557   1.236       .  S
O547      Mg1606   2.123   1_455  S
O548       Mg560   2.287       .  S
Mg549       O565   2.287   1_554  S
O550       Mg566   2.230       .  S
H551        C556   1.081       .  S
H553        C555   1.081       .  S
H554        C557   1.081       .  S
C555       O1567   1.271       .  A
O559       Mg566   2.296   1_556  S
C562       O1607   1.274       .  A
C562        C996   1.476       .  S
O563        C564   1.272       .  A
C564        C981   1.470       .  S
Mg566      O1587   2.123       .  S
O567       C1602   1.274   1_455  A
C569        C575   1.530       .  S
C569       C1614   1.535       .  S
C569        C573   1.543       .  S
C569       H1610   1.111       .  S
H570       C1609   1.111       .  S
C571       C1617   1.533       .  S
C571       C1616   1.547       .  S
C571        C578   1.547       .  S
C571        H572   1.106       .  S
C573        C993   1.493       .  S
C573       C1616   1.391       .  D
C574       C1609   1.535   1_455  S
C574        C948   1.484       .  S
C574        C577   1.368       .  D
C575        C936   1.490       .  S
C575        C578   1.372       .  D
C576       C1611   1.547       .  S
C576        C957   1.519   1_655  S
C576       C1613   1.391       .  D
C577       C1611   1.533   1_455  S
C577        C909   1.482       .  S
C578        C921   1.483       .  S
O579        C614   1.237       .  S
O579      Mg1621   2.160   1_455  S
O579       Mg587   2.149       .  S
C580        O593   1.235       .  S
C580        O617   1.268       .  A
C580        H619   1.081       .  S
Mg581      O1619   2.160       .  S
Mg581       O610   2.142       .  S
Mg581       O625   2.330       .  S
Mg581       O621   2.272       .  S
Mg581       O592   2.305   1_554  S
O582        C603   1.236       .  S
O582       Mg624   2.151       .  S
O582       Mg607   2.137       .  S
O583        C614   1.273   1_556  A
O583       Mg607   2.311       .  S
C584        O586   1.272       .  A
C584        O598   1.276       .  A
C584        C861   1.492       .  S
O585       C1653   1.272       .  A
O585       Mg587   2.306   1_655  S
O586       Mg618   2.266   1_556  S
Mg587       O593   2.127       .  S
Mg587       O601   2.239       .  S
Mg587       O589   2.293       .  S
C588        O626   1.276       .  A
C588       O1634   1.273       .  A
C588        C960   1.492       .  S
O589        C596   1.275       .  A
H590        C603   1.081       .  S
C591        O605   1.236       .  S
C591        O606   1.269   1_556  A
C591        H616   1.081       .  S
O592        C615   1.271       .  A
O593       Mg607   2.156   1_554  S
O594       C1628   1.273   1_455  A
O594       Mg624   2.293       .  S
C595        O608   1.271       .  A
C595        O600   1.277       .  A
C595        C852   1.490       .  S
C596        O623   1.272       .  A
C596        C873   1.492       .  S
Mg597       O604   2.156       .  S
Mg597       O605   2.154       .  S
Mg597       O598   2.292       .  S
Mg597       O599   2.292       .  S
Mg597       O626   2.301       .  S
O599       C1643   1.270       .  A
O600       Mg607   2.332       .  S
O601       C1660   1.270       .  A
O602        C622   1.276       .  A
O602       Mg618   2.326       .  S
C603       O1639   1.270       .  A
O604        C615   1.236       .  S
O604       Mg618   2.159   1_556  S
O605      Mg1664   2.128       .  S
O606       Mg618   2.293       .  S
Mg607       O623   2.273   1_556  S
O608       Mg624   2.231       .  S
H609        C614   1.081       .  S
O610        C613   1.237       .  S
O610       Mg618   2.152       .  S
H611        C613   1.081       .  S
H612        C615   1.081       .  S
C613       O1625   1.272       .  A
O617       Mg624   2.286   1_554  S
C620       O1641   1.270       .  A
C620        O625   1.276       .  A
C620        C897   1.482       .  S
O621        C622   1.274       .  A
C622        C888   1.479       .  S
Mg624      O1645   2.128   1_455  S
C627        C633   1.537       .  S
C627       C1672   1.544       .  S
C627        C631   1.534       .  S
C627       H1668   1.111       .  S
H628       C1667   1.111       .  S
C629       C1675   1.538       .  S
C629       C1674   1.543       .  S
C629        C636   1.533       .  S
C629        H630   1.111       .  S
C631       C1029   1.492       .  S
C631       C1674   1.376       .  D
C632       C1667   1.544       .  S
C632        C837   1.490       .  S
C632        C635   1.381       .  D
C633        C825   1.485       .  S
C633        C636   1.369       .  D
C634       C1669   1.543       .  S
C634        C900   1.488       .  S
C634       C1671   1.376       .  D
C635       C1669   1.538       .  S
C635        C801   1.497       .  S
C636        C816   1.480       .  S
O637        C672   1.236       .  S
O637       Mg639   2.141       .  S
O637       Mg645   2.154       .  S
C638        O651   1.236       .  S
C638        O675   1.271       .  A
C638        H677   1.081       .  S
Mg639       O668   2.153       .  S
Mg639       O683   2.288       .  S
Mg639       O679   2.255       .  S
Mg639       O650   2.287       .  S
O640       Mg682   2.146       .  S
O641        C672   1.271       .  A
O641       Mg665   2.302       .  S
C642        O644   1.273       .  A
C642        O656   1.273       .  A
C642        C840   1.485       .  S
O643        C671   1.270       .  A
O644       Mg676   2.280       .  S
Mg645       O659   2.300       .  S
Mg645       O647   2.286       .  S
C646        O684   1.269       .  A
C646        O652   1.277       .  A
C646        C777   1.481       .  S
O647        C654   1.275       .  A
H648        C661   1.081       .  S
C649        O663   1.238       .  S
C649        O664   1.273       .  A
C649        H674   1.081       .  S
O650        C673   1.267       .  A
O652       Mg682   2.336       .  S
C653        O666   1.273       .  A
C653        O658   1.279       .  A
C653        C828   1.490       .  S
C654        O681   1.274       .  A
C654        C933   1.491       .  S
Mg655       O663   2.143       .  S
Mg655       O656   2.282       .  S
Mg655       O684   2.241       .  S
O657        C661   1.272       .  A
O659        C678   1.275       .  A
O660        C680   1.277       .  A
O662        C673   1.234       .  S
O663       Mg682   2.153       .  S
O664       Mg676   2.308       .  S
Mg665       O681   2.287       .  S
O666       Mg682   2.265       .  S
H667        C672   1.081       .  S
H669        C671   1.081       .  S
H670        C673   1.081       .  S
O675       Mg682   2.306       .  S
C678        O683   1.274       .  A
C678        C789   1.496       .  S
O679        C680   1.273       .  A
C680        C945   1.487       .  S
C685        C691   1.542       .  S
C685        C690   1.536       .  S
C685        C689   1.543       .  S
C685        H686   1.109       .  S
C687        C693   1.542       .  S
C687        C692   1.535       .  S
C687        C694   1.531       .  S
C687        H688   1.110       .  S
C689        C765   1.499       .  S
C689        C692   1.382       .  D
C690        C885   1.495       .  S
C690        C693   1.381       .  D
C691        C876   1.489       .  S
C691        C694   1.374       .  D
C692        C780   1.496       .  S
C693       C1005   1.500       .  S
C694       C1020   1.481       .  S
O695        C730   1.236       .  S
O695       Mg697   2.147       .  S
O695       Mg703   2.164       .  S
C696        O709   1.236       .  S
C696        O733   1.270       .  A
C696        H735   1.081       .  S
Mg697       O726   2.152       .  S
Mg697       O741   2.280       .  S
Mg697       O737   2.258       .  S
Mg697       O708   2.288       .  S
O698        C719   1.237       .  S
O698       Mg740   2.145       .  S
O698       Mg723   2.147       .  S
O699        C730   1.270       .  A
O699       Mg723   2.298       .  S
C700        O702   1.274       .  A
C700        O714   1.271       .  A
C700        C924   1.480       .  S
O701        C729   1.269       .  A
O701       Mg703   2.295       .  S
O702       Mg734   2.284       .  S
Mg703       O709   2.142       .  S
Mg703       O717   2.274       .  S
Mg703       O705   2.291       .  S
C704        O742   1.268       .  A
C704        O710   1.274       .  A
C704        C753   1.474       .  S
O705        C712   1.274       .  A
H706        C719   1.081       .  S
C707        O721   1.236       .  S
C707        O722   1.271       .  A
C707        H732   1.081       .  S
O708        C731   1.268       .  A
O709       Mg723   2.162       .  S
O710       Mg740   2.306       .  S
C711        O724   1.271       .  A
C711        O716   1.276       .  A
C711        C912   1.474       .  S
C712        O739   1.273       .  A
C712        C804   1.480       .  S
Mg713       O720   2.126       .  S
Mg713       O721   2.145       .  S
Mg713       O714   2.266       .  S
Mg713       O715   2.303       .  S
Mg713       O742   2.247       .  S
O715        C719   1.272       .  A
O716       Mg723   2.316       .  S
O717        C736   1.273       .  A
O718        C738   1.278       .  A
O718       Mg734   2.325       .  S
O720        C731   1.234       .  S
O720       Mg734   2.161       .  S
O721       Mg740   2.142       .  S
O722       Mg734   2.301       .  S
Mg723       O739   2.281       .  S
O724       Mg740   2.257       .  S
H725        C730   1.081       .  S
O726        C729   1.236       .  S
O726       Mg734   2.139       .  S
H727        C729   1.081       .  S
H728        C731   1.081       .  S
O733       Mg740   2.301       .  S
C736        O741   1.273       .  A
C736        C768   1.483       .  S
O737        C738   1.272       .  A
C738        C813   1.486       .  S
C743        C749   1.539       .  S
C743        C748   1.532       .  S
C743        C747   1.541       .  S
C743        H744   1.110       .  S
C745        C751   1.540       .  S
C745        C750   1.545       .  S
C745        C752   1.535       .  S
C745        H746   1.111       .  S
C747        C756   1.491       .  S
C747        C750   1.384       .  D
C748        C864   1.481       .  S
C748        C751   1.370       .  D
C749        C849   1.490       .  S
C749        C752   1.374       .  D
C750        C792   1.507       .  S
C751        C972   1.487       .  S
C752        C984   1.485       .  S
C753        C754   1.401       .  A
C753        C758   1.411       .  A
C754        H759   1.085       .  S
C754        C755   1.401       .  A
C755        C756   1.415       .  A
C755        C762   1.442       .  S
C756        C757   1.404       .  A
C757        H760   1.083       .  S
C757        C758   1.397       .  A
C758        C761   1.445       .  S
C761        N763   1.157       .  T
C762        N764   1.157       .  T
C765        C766   1.405       .  A
C765        C770   1.416       .  A
C766        H771   1.084       .  S
C766        C767   1.393       .  A
C767        C768   1.414       .  A
C767        C774   1.446       .  S
C768        C769   1.405       .  A
C769        H772   1.085       .  S
C769        C770   1.405       .  A
C770        C773   1.442       .  S
C773        N775   1.157       .  T
C774        N776   1.158       .  T
C777        C778   1.401       .  A
C777        C782   1.410       .  A
C778        H783   1.086       .  S
C778        C779   1.396       .  A
C779        C780   1.416       .  A
C779        C786   1.442       .  S
C780        C781   1.407       .  A
C781        H784   1.085       .  S
C781        C782   1.407       .  A
C782        C785   1.442       .  S
C785        N787   1.157       .  T
C786        N788   1.157       .  T
C789        C790   1.406       .  A
C789        C794   1.413       .  A
C790        H795   1.085       .  S
C790        C791   1.399       .  A
C791        C792   1.416       .  A
C791        C798   1.441       .  S
C792        C793   1.407       .  A
C793        H796   1.076       .  S
C793        C794   1.407       .  A
C794        C797   1.443       .  S
C798        N800   1.157       .  T
C801        C802   1.408       .  A
C801        C806   1.414       .  A
C802        H807   1.084       .  S
C802        C803   1.402       .  A
C803        C804   1.409       .  A
C803        C810   1.443       .  S
C804        C805   1.403       .  A
C805        H808   1.085       .  S
C805        C806   1.401       .  A
C806        C809   1.442       .  S
C809        N811   1.157       .  T
C810        N812   1.157       .  T
C813        C814   1.406       .  A
C813        C818   1.418       .  A
C814        H819   1.085       .  S
C814        C815   1.403       .  A
C815        C816   1.408       .  A
C815        C822   1.442       .  S
C816        C817   1.398       .  A
C817        H820   1.085       .  S
C817        C818   1.399       .  A
C818        C821   1.443       .  S
C821        N823   1.157       .  T
C822        N824   1.157       .  T
C825        C826   1.399       .  A
C825        C830   1.409       .  A
C826        H831   1.084       .  S
C826        C827   1.400       .  A
C827        C828   1.417       .  A
C827        C834   1.443       .  S
C828        C829   1.407       .  A
C829        H832   1.084       .  S
C829        C830   1.406       .  A
C830        C833   1.442       .  S
C833        N835   1.157       .  T
C834        N836   1.157       .  T
C837        C838   1.403       .  A
C837        C842   1.414       .  A
C838        H843   1.082       .  S
C838        C839   1.401       .  A
C839        C840   1.414       .  A
C839        C846   1.443       .  S
C840        C841   1.405       .  A
C841        H844   1.085       .  S
C841        C842   1.396       .  A
C842        C845   1.443       .  S
C845        N847   1.157       .  T
C849        C850   1.405       .  A
C849        C854   1.411       .  A
C850        H855   1.084       .  S
C850        C851   1.408       .  A
C851        C852   1.415       .  A
C851        C858   1.442       .  S
C852        C853   1.404       .  A
C853        H856   1.085       .  S
C853        C854   1.392       .  A
C854        C857   1.440       .  S
C857        N859   1.156       .  T
C858        N860   1.157   1_556  T
C861        C862   1.408       .  A
C861        C866   1.420       .  A
C862        H867   1.084       .  S
C862        C863   1.396       .  A
C863        C864   1.408       .  A
C863        C870   1.443       .  S
C864        C865   1.399       .  A
C865        H868   1.084       .  S
C865        C866   1.402       .  A
C866        C869   1.444       .  S
C869        N871   1.158   1_556  T
C870        N872   1.157       .  T
C873        C874   1.405       .  A
C873        C878   1.418       .  A
C874        H879   1.085       .  S
C874        C875   1.396       .  A
C875        C876   1.413       .  A
C875        C882   1.441       .  S
C876        C877   1.402       .  A
C877        H880   1.085       .  S
C877        C878   1.404       .  A
C878        C881   1.442       .  S
C881        N883   1.157   1_554  T
C882        N884   1.157       .  T
C885        C886   1.408       .  A
C885        C890   1.414       .  A
C886        H891   1.085       .  S
C886        C887   1.407       .  A
C887        C888   1.410       .  A
C887        C894   1.442       .  S
C888        C889   1.399       .  A
C889        H892   1.085       .  S
C889        C890   1.399       .  A
C890        C893   1.440       .  S
C893        N895   1.156       .  T
C894        N896   1.157   1_554  T
C897       C1938   1.403       .  A
C897        C902   1.413       .  A
C898        H903   1.085       .  S
C898       C1937   1.403       .  A
C898        C899   1.395       .  A
C899        C900   1.411       .  A
C899        C906   1.442       .  S
C900       C1941   1.405   1_455  A
C901        H904   1.084       .  S
C901       C1940   1.405       .  A
C901        C902   1.406       .  A
C902        C905   1.443       .  S
C905        N907   1.157       .  T
C906        N908   1.156       .  T
C909        C910   1.401       .  A
C909        C914   1.410       .  A
C910        H915   1.085       .  S
C910        C911   1.400       .  A
C911        C912   1.412       .  A
C911        C918   1.444       .  S
C912        C913   1.401       .  A
C913        H916   1.085       .  S
C913        C914   1.400       .  A
C914        C917   1.440       .  S
C917        N919   1.156       .  T
C918        N920   1.157       .  T
C921        C922   1.395       .  A
C921        C926   1.412       .  A
C922        H927   1.082       .  S
C922        C923   1.394       .  A
C923        C924   1.415       .  A
C923        C930   1.445       .  S
C924        C925   1.404       .  A
C925        H928   1.085       .  S
C925        C926   1.403       .  A
C926        C929   1.441       .  S
C929        N931   1.157       .  T
C930        N932   1.157       .  T
C933        C934   1.405       .  A
C933        C938   1.417       .  A
C934        H939   1.085       .  S
C934        C935   1.395       .  A
C935        C936   1.410       .  A
C935        C942   1.439       .  S
C936        C937   1.404       .  A
C937        H940   1.084       .  S
C937        C938   1.407       .  A
C938        C941   1.443       .  S
C942        N944   1.156       .  T
C945        C946   1.405       .  A
C945        C950   1.416       .  A
C946        H951   1.085       .  S
C946        C947   1.397       .  A
C947        C948   1.409       .  A
C947        C954   1.443       .  S
C948        C949   1.402       .  A
C949        H952   1.084       .  S
C949        C950   1.405       .  A
C950        C953   1.443       .  S
C953        N955   1.157       .  T
C954        N956   1.157       .  T
C957        C958   1.409       .  A
C957       C2002   1.423   1_455  A
C958        H963   1.081       .  S
C958        C959   1.401       .  A
C959       C2000   1.415       .  A
C959        C966   1.445       .  S
C960       C1999   1.415       .  A
C960        C961   1.402       .  A
C961        H964   1.085       .  S
C961        C962   1.407       .  A
C962       C1997   1.423       .  A
C962        C965   1.439       .  S
C965        N967   1.158       .  T
C966        N968   1.157       .  T
C969        C970   1.404       .  A
C969        C974   1.417       .  A
C970        H975   1.085       .  S
C970        C971   1.402       .  A
C971        C972   1.411       .  A
C971        C978   1.440       .  S
C972        C973   1.398       .  A
C973        H976   1.078       .  S
C973        C974   1.398       .  A
C974        C977   1.445       .  S
C977        N979   1.157       .  T
C978        N980   1.156       .  T
C981        C982   1.399       .  A
C981        C986   1.410       .  A
C982        H987   1.085       .  S
C982        C983   1.399       .  A
C983        C984   1.413       .  A
C983        C990   1.440       .  S
C984        C985   1.402       .  A
C985        H988   1.085       .  S
C985        C986   1.399       .  A
C986        C989   1.442       .  S
C989        N991   1.157       .  T
C990        N992   1.156       .  T
C993       C2034   1.406       .  A
C993        C998   1.415       .  A
C994        H999   1.083       .  S
C994       C2033   1.406   1_455  A
C994        C995   1.402       .  A
C995       C2036   1.408   1_455  A
C995       C1002   1.442       .  S
C996       C2035   1.408       .  A
C996        C997   1.402       .  A
C997       H1000   1.086       .  S
C997        C998   1.397       .  A
C998       C1001   1.442       .  S
C1001      N1003   1.157       .  T
C1002      N1004   1.157       .  T
C1005      C1006   1.401       .  A
C1005      C1010   1.415       .  A
C1006      H1011   1.082       .  S
C1006      C1007   1.394       .  A
C1007      C1008   1.420       .  A
C1007      C1014   1.446       .  S
C1008      C1009   1.408       .  A
C1009      H1012   1.084       .  S
C1009      C1010   1.407       .  A
C1010      C1013   1.442       .  S
C1013      N1015   1.157       .  T
C1014      N1016   1.158       .  T
C1017      C1018   1.405       .  A
C1017      C1022   1.415       .  A
C1018      H1023   1.085       .  S
C1018      C1019   1.400       .  A
C1019      C1020   1.409       .  A
C1019      C1026   1.443       .  S
C1020      C1021   1.400       .  A
C1021      H1024   1.085       .  S
C1021      C1022   1.398       .  A
C1022      C1025   1.445       .  S
C1025      N1027   1.157       .  T
C1026      N1028   1.157       .  T
C1029      C1030   1.401       .  A
C1029      C2074   1.410       .  A
C1030      H1035   1.085       .  S
C1030      C1031   1.402       .  A
C1031      C1032   1.420       .  A
C1031      C1038   1.442       .  S
C1032      C1570   1.501       .  S
C1032      C2073   1.410       .  A
C1033      H1036   1.084       .  S
C1033      C2072   1.410       .  A
C1033      C1034   1.405       .  A
C1034      C2069   1.410       .  A
C1034      C1037   1.442       .  S
C1037      N1039   1.157       .  T
C1038      N1040   1.157       .  T
O1041      C1076   1.238       .  S
O1041     Mg1049   2.145       .  S
C1042      O1055   1.235       .  S
C1042      O1079   1.269       .  A
C1042      H1081   1.081       .  S
Mg1043     O1072   2.143       .  S
Mg1043     O1087   2.316       .  S
Mg1043     O1083   2.267       .  S
Mg1043     O1054   2.300       .  S
O1044      C1585   1.237       .  S
O1044     Mg1086   2.148       .  S
O1044     Mg1589   2.144       .  S
O1045      C1076   1.273       .  A
O1045     Mg1069   2.312   1_556  S
C1046      O1048   1.273       .  A
C1046      O1060   1.274       .  A
C1046      C1537   1.480       .  S
O1047     Mg1569   2.304   1_455  S
O1048     Mg1080   2.269   1_554  S
Mg1049     O1575   2.138   1_545  S
Mg1049     O1567   2.304   1_645  S
Mg1049     O1063   2.245       .  S
Mg1049     O1051   2.275       .  S
C1050      O1088   1.275       .  A
O1051      C1058   1.271       .  A
H1052      C1065   1.081       .  S
C1053      O1067   1.236       .  S
C1053      O1068   1.269   1_554  A
C1053      H1078   1.081       .  S
O1054      C1077   1.270   1_556  A
O1055     Mg1569   2.138       .  S
O1055     Mg1589   2.159   1_556  S
O1056     Mg1086   2.311       .  S
C1057      O1070   1.269       .  A
C1057      O1062   1.281       .  A
C1057      C1528   1.496       .  S
C1058      O1085   1.275       .  A
C1058      C1489   1.485       .  S
Mg1059     O1586   2.146       .  S
Mg1059     O1067   2.152       .  S
Mg1059     O1060   2.287       .  S
Mg1059     O1581   2.294       .  S
Mg1059     O1088   2.285       .  S
O1061     Mg1579   2.294   1_545  S
O1062     Mg1589   2.351       .  S
O1063      C1082   1.269       .  A
O1064      C1084   1.274       .  A
O1064     Mg1600   2.304   1_545  S
C1065      O1564   1.237   1_545  S
O1066      C1077   1.236       .  S
O1066     Mg1579   2.146   1_545  S
O1066     Mg1600   2.162   1_544  S
O1068     Mg1080   2.287       .  S
Mg1069     O1564   2.144   1_545  S
Mg1069     O1575   2.159   1_544  S
Mg1069     O1582   2.351   1_545  S
Mg1069     O1085   2.287   1_554  S
O1070     Mg1086   2.230       .  S
H1071      C1076   1.081       .  S
O1072      C1595   1.236   1_545  S
O1072     Mg1600   2.146   1_545  S
H1073      C1075   1.081       .  S
H1074      C1077   1.081       .  S
C1075      O1592   1.236       .  S
O1079     Mg1086   2.296   1_556  S
Mg1080     O1586   2.162   1_556  S
Mg1080     O1592   2.146       .  S
Mg1080     O1584   2.304       .  S
C1082      C1516   1.476       .  S
O1083      C1084   1.272       .  A
C1084      C1501   1.471       .  S
C1089      C1095   1.530       .  S
C1089      C1093   1.543       .  S
C1091      C1098   1.547       .  S
C1091      H1092   1.106   1_655  S
C1093      C1513   1.493       .  S
C1094      C1468   1.484       .  S
C1094      C1097   1.368       .  D
C1095      C1456   1.490       .  S
C1095      C1098   1.372       .  D
C1096      C1477   1.519       .  S
C1097      C1429   1.482       .  S
C1098      C1441   1.483       .  S
O1099      C1134   1.237       .  S
O1099     Mg1107   2.149       .  S
C1100      O1113   1.235       .  S
C1100      O1137   1.268       .  A
C1100      H1139   1.081       .  S
Mg1101     O1130   2.142       .  S
Mg1101     O1145   2.330       .  S
Mg1101     O1141   2.272       .  S
Mg1101     O1112   2.305   1_554  S
O1102      C1123   1.236       .  S
O1102     Mg1144   2.151       .  S
O1102     Mg1127   2.137       .  S
O1103      C1134   1.273   1_556  A
O1103     Mg1127   2.311       .  S
C1104      O1106   1.272       .  A
C1104      O1118   1.276       .  A
C1104      C1381   1.492       .  S
O1105     Mg1107   2.306       .  S
O1106     Mg1138   2.266   1_556  S
Mg1107     O1113   2.127       .  S
Mg1107     O1121   2.239       .  S
Mg1107     O1109   2.293       .  S
C1108      O1146   1.276       .  A
C1108      C1480   1.492   1_655  S
O1109      C1116   1.275       .  A
H1110      C1123   1.081       .  S
C1111      O1125   1.236       .  S
C1111      O1126   1.269   1_556  A
C1111      H1136   1.081       .  S
O1112      C1135   1.271       .  A
O1113     Mg1127   2.156   1_554  S
O1114     Mg1144   2.293       .  S
C1115      O1128   1.271       .  A
C1115      O1120   1.277       .  A
C1115      C1372   1.490       .  S
C1116      O1143   1.272       .  A
C1116      C1393   1.492       .  S
Mg1117     O1124   2.156       .  S
Mg1117     O1125   2.154       .  S
Mg1117     O1118   2.292       .  S
Mg1117     O1119   2.292   1_655  S
Mg1117     O1146   2.301       .  S
O1120     Mg1127   2.332       .  S
O1122      C1142   1.276       .  A
O1122     Mg1138   2.326       .  S
O1124      C1135   1.236       .  S
O1124     Mg1138   2.159   1_556  S
O1126     Mg1138   2.293       .  S
Mg1127     O1143   2.273   1_556  S
O1128     Mg1144   2.231       .  S
H1129      C1134   1.081       .  S
O1130      C1133   1.237       .  S
O1130     Mg1138   2.152       .  S
H1131      C1133   1.081       .  S
H1132      C1135   1.081       .  S
O1137     Mg1144   2.286   1_554  S
C1140      O1145   1.276   1_455  A
C1140      C1417   1.482       .  S
O1141      C1142   1.274       .  A
C1142      C1408   1.479       .  S
C1147      C1153   1.537   1_455  S
C1147      C1151   1.534       .  S
C1149      C1156   1.533   1_455  S
C1149      H1150   1.111       .  S
C1151      C1549   1.493       .  S
C1152      C1357   1.490       .  S
C1152      C1155   1.381       .  D
C1153      C1345   1.485       .  S
C1153      C1156   1.369       .  D
C1154      C1420   1.488       .  S
C1155      C1321   1.497       .  S
C1156      C1336   1.480       .  S
O1157      C1192   1.236       .  S
O1157     Mg1159   2.141       .  S
O1157     Mg1165   2.154       .  S
C1158      O1171   1.236       .  S
C1158      O1195   1.271       .  A
C1158      H1197   1.081       .  S
Mg1159     O1188   2.153       .  S
Mg1159     O1203   2.288       .  S
Mg1159     O1199   2.255       .  S
Mg1159     O1170   2.287       .  S
O1160      C1701   1.238       .  S
O1160     Mg1202   2.146       .  S
O1160     Mg1705   2.155       .  S
O1161      C1192   1.271       .  A
O1161     Mg1185   2.302       .  S
C1162      O1164   1.273       .  A
C1162      O1176   1.273       .  A
C1162      C1360   1.485       .  S
O1163      C1191   1.270       .  A
O1163     Mg1685   2.296       .  S
O1164     Mg1196   2.280       .  S
Mg1165     O1691   2.158   1_545  S
Mg1165     O1683   2.296   1_545  S
Mg1165     O1179   2.300       .  S
Mg1165     O1167   2.286       .  S
C1166      O1204   1.269       .  A
C1166      O1172   1.277       .  A
C1166      C1297   1.481       .  S
O1167      C1174   1.275       .  A
H1168      C1181   1.081       .  S
C1169      O1183   1.238       .  S
C1169      O1184   1.273       .  A
C1169      H1194   1.081       .  S
O1170      C1193   1.267       .  A
O1171     Mg1685   2.158       .  S
O1171     Mg1705   2.165       .  S
O1172     Mg1202   2.336       .  S
C1173      O1186   1.273       .  A
C1173      O1178   1.279       .  A
C1173      C1348   1.490       .  S
C1174      O1201   1.274       .  A
C1174      C1453   1.492       .  S
Mg1175     O1702   2.122       .  S
Mg1175     O1183   2.143       .  S
Mg1175     O1176   2.282       .  S
Mg1175     O1697   2.305       .  S
Mg1175     O1204   2.240       .  S
O1177      C1181   1.272       .  A
O1177     Mg1695   2.305   1_545  S
O1178     Mg1705   2.338       .  S
O1179      C1198   1.275       .  A
O1180      C1200   1.277       .  A
O1180     Mg1716   2.324   1_545  S
C1181      O1680   1.238   1_545  S
O1182      C1193   1.234       .  S
O1182     Mg1695   2.122   1_545  S
O1182     Mg1716   2.152   1_545  S
O1183     Mg1202   2.153       .  S
O1184     Mg1196   2.309       .  S
Mg1185     O1680   2.155   1_545  S
Mg1185     O1691   2.165   1_545  S
Mg1185     O1698   2.338   1_545  S
Mg1185     O1201   2.287       .  S
O1186     Mg1202   2.265       .  S
H1187      C1192   1.081       .  S
O1188      C1711   1.237   1_545  S
O1188     Mg1716   2.140   1_545  S
H1189      C1191   1.081       .  S
H1190      C1193   1.081       .  S
C1191      O1708   1.237       .  S
O1195     Mg1202   2.306       .  S
Mg1196     O1702   2.152       .  S
Mg1196     O1708   2.140       .  S
Mg1196     O1700   2.324       .  S
C1198      O1203   1.274       .  A
C1198      C1309   1.496       .  S
O1199      C1200   1.273       .  A
C1200      C1465   1.486       .  S
C1205      C1211   1.542       .  S
C1205      C1210   1.536       .  S
C1205      C1209   1.543       .  S
C1205      H1206   1.109       .  S
C1207      C1213   1.542       .  S
C1207      C1212   1.535       .  S
C1207      C1214   1.531       .  S
C1207      H1208   1.110       .  S
C1209      C1285   1.499       .  S
C1209      C1212   1.382       .  D
C1210      C1405   1.495       .  S
C1210      C1213   1.381       .  D
C1211      C1396   1.489       .  S
C1211      C1214   1.374       .  D
C1212      C1300   1.496       .  S
C1213      C1525   1.500       .  S
C1214      C1540   1.481       .  S
O1215      C1250   1.236       .  S
O1215     Mg1217   2.147       .  S
O1215     Mg1223   2.164       .  S
C1216      O1229   1.236       .  S
C1216      O1253   1.270       .  A
C1216      H1255   1.081       .  S
Mg1217     O1246   2.152       .  S
Mg1217     O1261   2.280       .  S
Mg1217     O1257   2.258       .  S
Mg1217     O1228   2.288       .  S
O1218      C1239   1.237       .  S
O1218     Mg1260   2.145       .  S
O1218     Mg1243   2.147       .  S
O1219      C1250   1.270       .  A
O1219     Mg1243   2.298       .  S
C1220      O1222   1.274       .  A
C1220      O1234   1.271       .  A
C1220      C1444   1.480       .  S
O1221      C1249   1.269       .  A
O1221     Mg1223   2.295       .  S
O1222     Mg1254   2.284       .  S
Mg1223     O1229   2.142       .  S
Mg1223     O1237   2.274       .  S
Mg1223     O1225   2.291       .  S
C1224      O1262   1.268       .  A
C1224      O1230   1.274       .  A
C1224      C1273   1.474       .  S
O1225      C1232   1.274       .  A
H1226      C1239   1.081       .  S
C1227      O1241   1.236       .  S
C1227      O1242   1.270       .  A
C1227      H1252   1.081       .  S
O1228      C1251   1.268       .  A
O1229     Mg1243   2.162       .  S
O1230     Mg1260   2.306       .  S
C1231      O1244   1.271       .  A
C1231      O1236   1.276       .  A
C1231      C1432   1.474       .  S
C1232      O1259   1.273       .  A
C1232      C1324   1.480       .  S
Mg1233     O1240   2.126       .  S
Mg1233     O1241   2.145       .  S
Mg1233     O1234   2.266       .  S
Mg1233     O1235   2.303       .  S
Mg1233     O1262   2.247       .  S
O1235      C1239   1.272       .  A
O1236     Mg1243   2.316       .  S
O1237      C1256   1.273       .  A
O1238      C1258   1.278       .  A
O1238     Mg1254   2.324       .  S
O1240      C1251   1.234       .  S
O1240     Mg1254   2.161       .  S
O1241     Mg1260   2.142       .  S
O1242     Mg1254   2.301       .  S
Mg1243     O1259   2.282       .  S
O1244     Mg1260   2.257       .  S
H1245      C1250   1.081       .  S
O1246      C1249   1.236       .  S
O1246     Mg1254   2.139       .  S
H1247      C1249   1.081       .  S
H1248      C1251   1.081       .  S
O1253     Mg1260   2.301       .  S
C1256      O1261   1.273       .  A
C1256      C1288   1.483       .  S
O1257      C1258   1.272       .  A
C1258      C1333   1.486       .  S
C1263      C1269   1.539       .  S
C1263      C1268   1.532       .  S
C1263      C1267   1.541       .  S
C1263      H1264   1.110       .  S
C1265      C1271   1.540       .  S
C1265      C1270   1.545       .  S
C1265      C1272   1.535       .  S
C1265      H1266   1.111       .  S
C1267      C1276   1.491       .  S
C1267      C1270   1.384       .  D
C1268      C1384   1.481       .  S
C1268      C1271   1.370       .  D
C1269      C1369   1.490       .  S
C1269      C1272   1.374       .  D
C1270      C1312   1.507       .  S
C1271      C1492   1.487       .  S
C1272      C1504   1.485       .  S
C1273      C1274   1.401       .  A
C1273      C1278   1.411       .  A
C1274      H1279   1.085       .  S
C1274      C1275   1.401       .  A
C1275      C1276   1.415       .  A
C1275      C1282   1.442       .  S
C1276      C1277   1.404       .  A
C1277      H1280   1.083       .  S
C1277      C1278   1.397       .  A
C1278      C1281   1.445       .  S
C1281      N1283   1.157       .  T
C1282      N1284   1.157       .  T
C1285      C1286   1.405       .  A
C1285      C1290   1.416       .  A
C1286      H1291   1.084       .  S
C1286      C1287   1.393       .  A
C1287      C1288   1.414       .  A
C1287      C1294   1.446       .  S
C1288      C1289   1.405       .  A
C1289      H1292   1.085       .  S
C1289      C1290   1.405       .  A
C1290      C1293   1.442       .  S
C1293      N1295   1.157       .  T
C1294      N1296   1.158       .  T
C1297      C1298   1.401       .  A
C1297      C1302   1.410       .  A
C1298      H1303   1.086       .  S
C1298      C1299   1.396       .  A
C1299      C1300   1.415       .  A
C1299      C1306   1.442       .  S
C1300      C1301   1.407       .  A
C1301      H1304   1.085       .  S
C1301      C1302   1.407       .  A
C1302      C1305   1.442       .  S
C1305      N1307   1.157       .  T
C1306      N1308   1.157       .  T
C1309      C1310   1.406       .  A
C1309      C1314   1.413       .  A
C1310      H1315   1.085       .  S
C1310      C1311   1.399       .  A
C1311      C1312   1.416       .  A
C1311      C1318   1.441       .  S
C1312      C1313   1.408       .  A
C1313      H1316   1.076       .  S
C1313      C1314   1.407       .  A
C1314      C1317   1.443       .  S
C1317      N1839   1.157       .  T
C1318      N1320   1.157       .  T
N1319      C1837   1.157       .  T
C1321      C1322   1.408       .  A
C1321      C1326   1.414       .  A
C1322      H1327   1.084       .  S
C1322      C1323   1.402       .  A
C1323      C1324   1.409       .  A
C1323      C1330   1.443       .  S
C1324      C1325   1.403       .  A
C1325      H1328   1.085       .  S
C1325      C1326   1.401       .  A
C1326      C1329   1.442       .  S
C1329      N1331   1.157       .  T
C1330      N1332   1.157       .  T
C1333      C1334   1.406       .  A
C1333      C1338   1.417       .  A
C1334      H1339   1.085       .  S
C1334      C1335   1.403       .  A
C1335      C1336   1.408       .  A
C1335      C1342   1.442       .  S
C1336      C1337   1.398       .  A
C1337      H1340   1.085       .  S
C1337      C1338   1.399       .  A
C1338      C1341   1.443       .  S
C1341      N1343   1.157       .  T
C1342      N1344   1.157       .  T
C1345      C1346   1.399       .  A
C1345      C1350   1.409       .  A
C1346      H1351   1.084       .  S
C1346      C1347   1.400       .  A
C1347      C1348   1.417       .  A
C1347      C1354   1.443       .  S
C1348      C1349   1.407       .  A
C1349      H1352   1.084       .  S
C1349      C1350   1.406       .  A
C1350      C1353   1.442       .  S
C1353      N1355   1.157       .  T
C1354      N1356   1.157       .  T
C1357      C1358   1.402       .  A
C1357      C1362   1.414       .  A
C1358      H1363   1.082       .  S
C1358      C1359   1.401       .  A
C1359      C1360   1.414       .  A
C1359      C1366   1.443       .  S
C1360      C1361   1.405       .  A
C1361      H1364   1.085       .  S
C1361      C1362   1.396       .  A
C1362      C1365   1.443       .  S
C1365      N1367   1.157       .  T
C1366      N1888   1.157       .  T
N1368      C1886   1.157       .  T
C1369      C1370   1.405       .  A
C1369      C1374   1.411       .  A
C1370      H1375   1.084       .  S
C1370      C1371   1.408       .  A
C1371      C1372   1.415       .  A
C1371      C1378   1.442       .  S
C1372      C1373   1.404       .  A
C1373      H1376   1.085       .  S
C1373      C1374   1.392       .  A
C1374      C1377   1.440       .  S
C1377      N1379   1.156       .  T
C1378      N1380   1.157   1_556  T
C1381      C1382   1.408       .  A
C1381      C1386   1.420       .  A
C1382      H1387   1.084       .  S
C1382      C1383   1.396       .  A
C1383      C1384   1.408       .  A
C1383      C1390   1.443       .  S
C1384      C1385   1.399       .  A
C1385      H1388   1.084       .  S
C1385      C1386   1.402       .  A
C1386      C1389   1.444       .  S
C1389      N1391   1.158   1_556  T
C1390      N1392   1.157       .  T
C1393      C1394   1.405       .  A
C1393      C1398   1.418       .  A
C1394      H1399   1.085       .  S
C1394      C1395   1.396       .  A
C1395      C1396   1.413       .  A
C1395      C1402   1.441       .  S
C1396      C1397   1.402       .  A
C1397      H1400   1.085       .  S
C1397      C1398   1.404       .  A
C1398      C1401   1.442       .  S
C1401      N1403   1.157   1_554  T
C1402      N1404   1.157       .  T
C1405      C1406   1.408       .  A
C1405      C1410   1.414       .  A
C1406      H1411   1.085       .  S
C1406      C1407   1.407       .  A
C1407      C1408   1.410       .  A
C1407      C1414   1.442       .  S
C1408      C1409   1.399       .  A
C1409      H1412   1.085       .  S
C1409      C1410   1.399       .  A
C1410      C1413   1.440       .  S
C1413      N1415   1.156       .  T
C1414      N1416   1.157   1_554  T
C1417      C1422   1.413   1_455  A
C1418      H1423   1.085       .  S
C1418      C1419   1.395       .  A
C1419      C1420   1.411       .  A
C1419      C1426   1.442       .  S
C1421      H1424   1.084       .  S
C1421      C1422   1.406       .  A
C1422      C1425   1.443       .  S
C1425      N1427   1.157       .  T
C1426      N1428   1.156       .  T
C1429      C1430   1.401       .  A
C1429      C1434   1.410       .  A
C1430      H1435   1.085       .  S
C1430      C1431   1.400       .  A
C1431      C1432   1.412       .  A
C1431      C1438   1.444       .  S
C1432      C1433   1.401       .  A
C1433      H1436   1.085       .  S
C1433      C1434   1.400       .  A
C1434      C1437   1.440       .  S
C1437      N1439   1.156       .  T
C1438      N1440   1.157       .  T
C1441      C1442   1.395       .  A
C1441      C1446   1.412       .  A
C1442      H1447   1.082       .  S
C1442      C1443   1.394       .  A
C1443      C1444   1.415       .  A
C1443      C1450   1.445       .  S
C1444      C1445   1.404       .  A
C1445      H1448   1.085       .  S
C1445      C1446   1.403       .  A
C1446      C1449   1.441       .  S
C1449      N1451   1.157       .  T
C1450      N1452   1.157       .  T
C1453      C1454   1.405       .  A
C1453      C1458   1.417       .  A
C1454      H1459   1.085       .  S
C1454      C1455   1.395       .  A
C1455      C1456   1.410       .  A
C1455      C1462   1.439       .  S
C1456      C1457   1.404       .  A
C1457      H1460   1.084       .  S
C1457      C1458   1.407       .  A
C1458      C1461   1.443       .  S
C1461      N1983   1.157       .  T
C1462      N1464   1.156       .  T
N1463      C1981   1.157       .  T
C1465      C1466   1.405       .  A
C1465      C1470   1.416       .  A
C1466      H1471   1.085       .  S
C1466      C1467   1.397       .  A
C1467      C1468   1.409       .  A
C1467      C1474   1.443       .  S
C1468      C1469   1.402       .  A
C1469      H1472   1.084       .  S
C1469      C1470   1.405       .  A
C1470      C1473   1.443       .  S
C1473      N1475   1.157       .  T
C1474      N1476   1.157       .  T
C1477      C1478   1.409       .  A
C1478      H1483   1.081       .  S
C1478      C1479   1.401       .  A
C1479      C1486   1.445       .  S
C1480      C1481   1.402   1_455  A
C1481      H1484   1.085       .  S
C1481      C1482   1.407       .  A
C1482      C1485   1.439       .  S
C1485      N1487   1.158       .  T
C1486      N1488   1.157       .  T
C1489      C1490   1.404       .  A
C1489      C1494   1.417       .  A
C1490      H1495   1.085       .  S
C1490      C1491   1.402       .  A
C1491      C1492   1.411       .  A
C1491      C1498   1.440       .  S
C1492      C1493   1.398       .  A
C1493      H1496   1.078       .  S
C1493      C1494   1.398       .  A
C1494      C1497   1.445       .  S
C1497      N1499   1.157       .  T
C1498      N1500   1.156       .  T
C1501      C1502   1.399       .  A
C1501      C1506   1.410       .  A
C1502      H1507   1.085       .  S
C1502      C1503   1.399       .  A
C1503      C1504   1.413       .  A
C1503      C1510   1.440       .  S
C1504      C1505   1.402       .  A
C1505      H1508   1.085       .  S
C1505      C1506   1.399       .  A
C1506      C1509   1.442       .  S
C1509      N1511   1.157       .  T
C1510      N1512   1.156       .  T
C1513      C1518   1.415       .  A
C1514      H1519   1.083       .  S
C1514      C1515   1.402       .  A
C1515      C1522   1.442       .  S
C1516      C1517   1.402       .  A
C1517      H1520   1.086       .  S
C1517      C1518   1.397       .  A
C1518      C1521   1.442       .  S
C1521      N1523   1.157       .  T
C1522      N1524   1.157       .  T
C1525      C1526   1.401       .  A
C1525      C1530   1.415       .  A
C1526      H1531   1.082       .  S
C1526      C1527   1.394       .  A
C1527      C1528   1.420       .  A
C1527      C1534   1.446       .  S
C1528      C1529   1.408       .  A
C1529      H1532   1.084       .  S
C1529      C1530   1.407       .  A
C1530      C1533   1.442       .  S
C1533      N1535   1.157       .  T
C1534      N1536   1.158       .  T
C1537      C1538   1.405       .  A
C1537      C1542   1.415       .  A
C1538      H1543   1.085       .  S
C1538      C1539   1.400       .  A
C1539      C1540   1.409       .  A
C1539      C1546   1.443       .  S
C1540      C1541   1.400       .  A
C1541      H1544   1.085       .  S
C1541      C1542   1.398       .  A
C1542      C1545   1.445       .  S
C1545      N1547   1.157       .  T
C1546      N1548   1.157       .  T
C1549      C1550   1.401   1_455  A
C1550      H1555   1.085       .  S
C1550      C1551   1.402       .  A
C1551      C1552   1.420   1_655  A
C1551      C1558   1.442       .  S
C1553      H1556   1.084       .  S
C1553      C1554   1.405       .  A
C1554      C1557   1.442       .  S
C1557      N1559   1.157       .  T
C1558      N1560   1.157       .  T
O1561      C1596   1.238       .  S
O1561     Mg1569   2.145       .  S
C1562      O1575   1.235       .  S
C1562      O1599   1.269       .  A
C1562      H1601   1.081       .  S
Mg1563     O1592   2.143       .  S
Mg1563     O1607   2.316       .  S
Mg1563     O1603   2.267       .  S
Mg1563     O1574   2.300       .  S
O1564     Mg1606   2.148       .  S
O1565      C1596   1.273       .  A
O1565     Mg1589   2.313   1_556  S
C1566      O1568   1.273       .  A
C1566      O1580   1.274       .  A
C1566      C2057   1.480       .  S
O1568     Mg1600   2.269   1_554  S
Mg1569     O1583   2.245       .  S
Mg1569     O1571   2.275       .  S
C1570      O1608   1.275       .  A
O1571      C1578   1.271       .  A
H1572      C1585   1.081       .  S
C1573      O1587   1.236       .  S
C1573      O1588   1.269   1_554  A
C1573      H1598   1.081       .  S
O1574      C1597   1.270   1_556  A
O1576     Mg1606   2.310       .  S
C1577      O1590   1.269       .  A
C1577      O1582   1.281       .  A
C1577      C2048   1.496       .  S
C1578      O1605   1.275       .  A
C1578      C2009   1.485       .  S
Mg1579     O1587   2.152       .  S
Mg1579     O1580   2.287       .  S
Mg1579     O1608   2.285       .  S
O1583      C1602   1.269       .  A
O1584      C1604   1.274       .  A
O1586      C1597   1.236       .  S
O1588     Mg1600   2.287       .  S
Mg1589     O1605   2.287   1_554  S
O1590     Mg1606   2.230       .  S
H1591      C1596   1.081       .  S
H1593      C1595   1.081       .  S
H1594      C1597   1.081       .  S
O1599     Mg1606   2.296   1_556  S
C1602      C2036   1.476       .  S
O1603      C1604   1.272       .  A
C1604      C2021   1.470       .  S
C1609      C1615   1.530       .  S
C1609      C1613   1.543       .  S
C1611      C1618   1.547       .  S
C1611      H1612   1.106   1_655  S
C1613      C2033   1.493       .  S
C1614      C1988   1.484       .  S
C1614      C1617   1.368       .  D
C1615      C1976   1.490       .  S
C1615      C1618   1.372       .  D
C1616      C1997   1.519       .  S
C1617      C1949   1.482       .  S
C1618      C1961   1.483       .  S
O1619      C1654   1.237       .  S
O1619     Mg1627   2.149       .  S
C1620      O1633   1.235       .  S
C1620      O1657   1.268       .  A
C1620      H1659   1.081       .  S
Mg1621     O1650   2.142       .  S
Mg1621     O1665   2.330       .  S
Mg1621     O1661   2.272       .  S
Mg1621     O1632   2.305   1_554  S
O1622      C1643   1.236       .  S
O1622     Mg1664   2.151       .  S
O1622     Mg1647   2.137       .  S
O1623      C1654   1.273   1_556  A
O1623     Mg1647   2.311       .  S
C1624      O1626   1.272       .  A
C1624      O1638   1.276       .  A
C1624      C1901   1.492       .  S
O1625     Mg1627   2.306       .  S
O1626     Mg1658   2.266   1_556  S
Mg1627     O1633   2.127       .  S
Mg1627     O1641   2.239       .  S
Mg1627     O1629   2.293       .  S
C1628      O1666   1.276       .  A
C1628      C2000   1.492   1_655  S
O1629      C1636   1.275       .  A
H1630      C1643   1.081       .  S
C1631      O1645   1.236       .  S
C1631      O1646   1.269   1_556  A
C1631      H1656   1.081       .  S
O1632      C1655   1.271       .  A
O1633     Mg1647   2.156   1_554  S
O1634     Mg1664   2.293       .  S
C1635      O1648   1.271       .  A
C1635      O1640   1.277       .  A
C1635      C1892   1.490       .  S
C1636      O1663   1.272       .  A
C1636      C1913   1.492       .  S
Mg1637     O1644   2.156       .  S
Mg1637     O1645   2.154       .  S
Mg1637     O1638   2.292       .  S
Mg1637     O1639   2.292   1_655  S
Mg1637     O1666   2.301       .  S
O1640     Mg1647   2.332       .  S
O1642      C1662   1.276       .  A
O1642     Mg1658   2.326       .  S
O1644      C1655   1.236       .  S
O1644     Mg1658   2.159   1_556  S
O1646     Mg1658   2.293       .  S
Mg1647     O1663   2.273   1_556  S
O1648     Mg1664   2.231       .  S
H1649      C1654   1.081       .  S
O1650      C1653   1.237       .  S
O1650     Mg1658   2.152       .  S
H1651      C1653   1.081       .  S
H1652      C1655   1.081       .  S
O1657     Mg1664   2.286   1_554  S
C1660      O1665   1.276   1_455  A
C1660      C1937   1.482       .  S
O1661      C1662   1.274       .  A
C1662      C1928   1.479       .  S
C1667      C1673   1.537   1_455  S
C1667      C1671   1.534       .  S
C1669      C1676   1.533   1_455  S
C1669      H1670   1.111       .  S
C1671      C2069   1.492       .  S
C1672      C1877   1.490       .  S
C1672      C1675   1.381       .  D
C1673      C1865   1.485       .  S
C1673      C1676   1.369       .  D
C1674      C1940   1.488       .  S
C1675      C1841   1.497       .  S
C1676      C1856   1.480       .  S
O1677      C1712   1.236       .  S
O1677     Mg1679   2.141       .  S
O1677     Mg1685   2.154       .  S
C1678      O1691   1.236       .  S
C1678      O1715   1.271       .  A
C1678      H1717   1.081       .  S
Mg1679     O1708   2.153       .  S
Mg1679     O1723   2.288       .  S
Mg1679     O1719   2.255       .  S
Mg1679     O1690   2.287       .  S
O1680     Mg1722   2.146       .  S
O1681      C1712   1.271       .  A
O1681     Mg1705   2.302       .  S
C1682      O1684   1.273       .  A
C1682      O1696   1.273       .  A
C1682      C1880   1.485       .  S
O1683      C1711   1.270       .  A
O1684     Mg1716   2.280       .  S
Mg1685     O1699   2.300       .  S
Mg1685     O1687   2.286       .  S
C1686      O1724   1.269       .  A
C1686      O1692   1.277       .  A
C1686      C1817   1.481       .  S
O1687      C1694   1.275       .  A
H1688      C1701   1.081       .  S
C1689      O1703   1.238       .  S
C1689      O1704   1.273       .  A
C1689      H1714   1.081       .  S
O1690      C1713   1.267       .  A
O1692     Mg1722   2.336       .  S
C1693      O1706   1.273       .  A
C1693      O1698   1.279       .  A
C1693      C1868   1.490       .  S
C1694      O1721   1.274       .  A
C1694      C1973   1.491       .  S
Mg1695     O1703   2.143       .  S
Mg1695     O1696   2.282       .  S
Mg1695     O1724   2.241       .  S
O1697      C1701   1.272       .  A
O1699      C1718   1.275       .  A
O1700      C1720   1.277       .  A
O1702      C1713   1.234       .  S
O1703     Mg1722   2.153       .  S
O1704     Mg1716   2.308       .  S
Mg1705     O1721   2.287       .  S
O1706     Mg1722   2.265       .  S
H1707      C1712   1.081       .  S
H1709      C1711   1.081       .  S
H1710      C1713   1.081       .  S
O1715     Mg1722   2.306       .  S
C1718      O1723   1.274       .  A
C1718      C1829   1.496       .  S
O1719      C1720   1.273       .  A
C1720      C1985   1.487       .  S
C1725      C1731   1.542       .  S
C1725      C1730   1.536       .  S
C1725      C1729   1.543       .  S
C1725      H1726   1.109       .  S
C1727      C1733   1.542       .  S
C1727      C1732   1.535       .  S
C1727      C1734   1.531       .  S
C1727      H1728   1.110       .  S
C1729      C1805   1.499       .  S
C1729      C1732   1.382       .  D
C1730      C1925   1.495       .  S
C1730      C1733   1.381       .  D
C1731      C1916   1.489       .  S
C1731      C1734   1.374       .  D
C1732      C1820   1.496       .  S
C1733      C2045   1.500       .  S
C1734      C2060   1.481       .  S
O1735      C1770   1.236       .  S
O1735     Mg1737   2.147       .  S
O1735     Mg1743   2.164       .  S
C1736      O1749   1.236       .  S
C1736      O1773   1.270       .  A
C1736      H1775   1.081       .  S
Mg1737     O1766   2.152       .  S
Mg1737     O1781   2.280       .  S
Mg1737     O1777   2.258       .  S
Mg1737     O1748   2.288       .  S
O1738      C1759   1.237       .  S
O1738     Mg1780   2.145       .  S
O1738     Mg1763   2.147       .  S
O1739      C1770   1.270       .  A
O1739     Mg1763   2.298       .  S
C1740      O1742   1.274       .  A
C1740      O1754   1.271       .  A
C1740      C1964   1.480       .  S
O1741      C1769   1.269       .  A
O1741     Mg1743   2.295       .  S
O1742     Mg1774   2.284       .  S
Mg1743     O1749   2.142       .  S
Mg1743     O1757   2.274       .  S
Mg1743     O1745   2.291       .  S
C1744      O1782   1.268       .  A
C1744      O1750   1.274       .  A
C1744      C1793   1.474       .  S
O1745      C1752   1.274       .  A
H1746      C1759   1.081       .  S
C1747      O1761   1.236       .  S
C1747      O1762   1.271       .  A
C1747      H1772   1.081       .  S
O1748      C1771   1.268       .  A
O1749     Mg1763   2.162       .  S
O1750     Mg1780   2.306       .  S
C1751      O1764   1.271       .  A
C1751      O1756   1.276       .  A
C1751      C1952   1.474       .  S
C1752      O1779   1.273       .  A
C1752      C1844   1.480       .  S
Mg1753     O1760   2.126       .  S
Mg1753     O1761   2.145       .  S
Mg1753     O1754   2.266       .  S
Mg1753     O1755   2.303       .  S
Mg1753     O1782   2.247       .  S
O1755      C1759   1.272       .  A
O1756     Mg1763   2.316       .  S
O1757      C1776   1.273       .  A
O1758      C1778   1.278       .  A
O1758     Mg1774   2.325       .  S
O1760      C1771   1.234       .  S
O1760     Mg1774   2.161       .  S
O1761     Mg1780   2.142       .  S
O1762     Mg1774   2.301       .  S
Mg1763     O1779   2.281       .  S
O1764     Mg1780   2.257       .  S
H1765      C1770   1.081       .  S
O1766      C1769   1.236       .  S
O1766     Mg1774   2.139       .  S
H1767      C1769   1.081       .  S
H1768      C1771   1.081       .  S
O1773     Mg1780   2.301       .  S
C1776      O1781   1.273       .  A
C1776      C1808   1.483       .  S
O1777      C1778   1.272       .  A
C1778      C1853   1.486       .  S
C1783      C1789   1.539       .  S
C1783      C1788   1.532       .  S
C1783      C1787   1.541       .  S
C1783      H1784   1.110       .  S
C1785      C1791   1.540       .  S
C1785      C1790   1.545       .  S
C1785      C1792   1.535       .  S
C1785      H1786   1.111       .  S
C1787      C1796   1.491       .  S
C1787      C1790   1.384       .  D
C1788      C1904   1.481       .  S
C1788      C1791   1.370       .  D
C1789      C1889   1.490       .  S
C1789      C1792   1.374       .  D
C1790      C1832   1.507       .  S
C1791      C2012   1.487       .  S
C1792      C2024   1.485       .  S
C1793      C1794   1.401       .  A
C1793      C1798   1.411       .  A
C1794      H1799   1.085       .  S
C1794      C1795   1.401       .  A
C1795      C1796   1.415       .  A
C1795      C1802   1.442       .  S
C1796      C1797   1.404       .  A
C1797      H1800   1.083       .  S
C1797      C1798   1.397       .  A
C1798      C1801   1.445       .  S
C1801      N1803   1.157       .  T
C1802      N1804   1.157       .  T
C1805      C1806   1.405       .  A
C1805      C1810   1.416       .  A
C1806      H1811   1.084       .  S
C1806      C1807   1.393       .  A
C1807      C1808   1.414       .  A
C1807      C1814   1.446       .  S
C1808      C1809   1.405       .  A
C1809      H1812   1.085       .  S
C1809      C1810   1.405       .  A
C1810      C1813   1.442       .  S
C1813      N1815   1.157       .  T
C1814      N1816   1.158       .  T
C1817      C1818   1.401       .  A
C1817      C1822   1.410       .  A
C1818      H1823   1.086       .  S
C1818      C1819   1.396       .  A
C1819      C1820   1.416       .  A
C1819      C1826   1.442       .  S
C1820      C1821   1.407       .  A
C1821      H1824   1.085       .  S
C1821      C1822   1.407       .  A
C1822      C1825   1.442       .  S
C1825      N1827   1.157       .  T
C1826      N1828   1.157       .  T
C1829      C1830   1.406       .  A
C1829      C1834   1.413       .  A
C1830      H1835   1.085       .  S
C1830      C1831   1.399       .  A
C1831      C1832   1.416       .  A
C1831      C1838   1.441       .  S
C1832      C1833   1.407       .  A
C1833      H1836   1.076       .  S
C1833      C1834   1.407       .  A
C1834      C1837   1.443       .  S
C1838      N1840   1.157       .  T
C1841      C1842   1.408       .  A
C1841      C1846   1.414       .  A
C1842      H1847   1.084       .  S
C1842      C1843   1.402       .  A
C1843      C1844   1.409       .  A
C1843      C1850   1.443       .  S
C1844      C1845   1.403       .  A
C1845      H1848   1.085       .  S
C1845      C1846   1.401       .  A
C1846      C1849   1.442       .  S
C1849      N1851   1.157       .  T
C1850      N1852   1.157       .  T
C1853      C1854   1.406       .  A
C1853      C1858   1.418       .  A
C1854      H1859   1.085       .  S
C1854      C1855   1.403       .  A
C1855      C1856   1.408       .  A
C1855      C1862   1.442       .  S
C1856      C1857   1.398       .  A
C1857      H1860   1.085       .  S
C1857      C1858   1.399       .  A
C1858      C1861   1.443       .  S
C1861      N1863   1.157       .  T
C1862      N1864   1.157       .  T
C1865      C1866   1.399       .  A
C1865      C1870   1.409       .  A
C1866      H1871   1.084       .  S
C1866      C1867   1.400       .  A
C1867      C1868   1.417       .  A
C1867      C1874   1.443       .  S
C1868      C1869   1.407       .  A
C1869      H1872   1.084       .  S
C1869      C1870   1.406       .  A
C1870      C1873   1.442       .  S
C1873      N1875   1.157       .  T
C1874      N1876   1.157       .  T
C1877      C1878   1.403       .  A
C1877      C1882   1.414       .  A
C1878      H1883   1.082       .  S
C1878      C1879   1.401       .  A
C1879      C1880   1.414       .  A
C1879      C1886   1.443       .  S
C1880      C1881   1.405       .  A
C1881      H1884   1.085       .  S
C1881      C1882   1.396       .  A
C1882      C1885   1.443       .  S
C1885      N1887   1.157       .  T
C1889      C1890   1.405       .  A
C1889      C1894   1.411       .  A
C1890      H1895   1.084       .  S
C1890      C1891   1.408       .  A
C1891      C1892   1.415       .  A
C1891      C1898   1.442       .  S
C1892      C1893   1.404       .  A
C1893      H1896   1.085       .  S
C1893      C1894   1.392       .  A
C1894      C1897   1.440       .  S
C1897      N1899   1.156       .  T
C1898      N1900   1.157   1_556  T
C1901      C1902   1.408       .  A
C1901      C1906   1.420       .  A
C1902      H1907   1.084       .  S
C1902      C1903   1.396       .  A
C1903      C1904   1.408       .  A
C1903      C1910   1.443       .  S
C1904      C1905   1.399       .  A
C1905      H1908   1.084       .  S
C1905      C1906   1.402       .  A
C1906      C1909   1.444       .  S
C1909      N1911   1.158   1_556  T
C1910      N1912   1.157       .  T
C1913      C1914   1.405       .  A
C1913      C1918   1.418       .  A
C1914      H1919   1.085       .  S
C1914      C1915   1.396       .  A
C1915      C1916   1.413       .  A
C1915      C1922   1.441       .  S
C1916      C1917   1.402       .  A
C1917      H1920   1.085       .  S
C1917      C1918   1.404       .  A
C1918      C1921   1.442       .  S
C1921      N1923   1.157   1_554  T
C1922      N1924   1.157       .  T
C1925      C1926   1.408       .  A
C1925      C1930   1.414       .  A
C1926      H1931   1.085       .  S
C1926      C1927   1.407       .  A
C1927      C1928   1.410       .  A
C1927      C1934   1.442       .  S
C1928      C1929   1.399       .  A
C1929      H1932   1.085       .  S
C1929      C1930   1.399       .  A
C1930      C1933   1.440       .  S
C1933      N1935   1.156       .  T
C1934      N1936   1.157   1_554  T
C1937      C1942   1.413   1_455  A
C1938      H1943   1.085       .  S
C1938      C1939   1.395       .  A
C1939      C1940   1.411       .  A
C1939      C1946   1.442       .  S
C1941      H1944   1.084       .  S
C1941      C1942   1.406       .  A
C1942      C1945   1.443       .  S
C1945      N1947   1.157       .  T
C1946      N1948   1.156       .  T
C1949      C1950   1.401       .  A
C1949      C1954   1.410       .  A
C1950      H1955   1.085       .  S
C1950      C1951   1.400       .  A
C1951      C1952   1.412       .  A
C1951      C1958   1.444       .  S
C1952      C1953   1.401       .  A
C1953      H1956   1.085       .  S
C1953      C1954   1.400       .  A
C1954      C1957   1.440       .  S
C1957      N1959   1.156       .  T
C1958      N1960   1.157       .  T
C1961      C1962   1.395       .  A
C1961      C1966   1.412       .  A
C1962      H1967   1.082       .  S
C1962      C1963   1.394       .  A
C1963      C1964   1.415       .  A
C1963      C1970   1.445       .  S
C1964      C1965   1.404       .  A
C1965      H1968   1.085       .  S
C1965      C1966   1.403       .  A
C1966      C1969   1.441       .  S
C1969      N1971   1.157       .  T
C1970      N1972   1.157       .  T
C1973      C1974   1.405       .  A
C1973      C1978   1.417       .  A
C1974      H1979   1.085       .  S
C1974      C1975   1.395       .  A
C1975      C1976   1.410       .  A
C1975      C1982   1.439       .  S
C1976      C1977   1.404       .  A
C1977      H1980   1.084       .  S
C1977      C1978   1.407       .  A
C1978      C1981   1.443       .  S
C1982      N1984   1.156       .  T
C1985      C1986   1.405       .  A
C1985      C1990   1.416       .  A
C1986      H1991   1.085       .  S
C1986      C1987   1.397       .  A
C1987      C1988   1.409       .  A
C1987      C1994   1.443       .  S
C1988      C1989   1.402       .  A
C1989      H1992   1.084       .  S
C1989      C1990   1.405       .  A
C1990      C1993   1.443       .  S
C1993      N1995   1.157       .  T
C1994      N1996   1.157       .  T
C1997      C1998   1.409       .  A
C1998      H2003   1.081       .  S
C1998      C1999   1.401       .  A
C1999      C2006   1.445       .  S
C2000      C2001   1.402   1_455  A
C2001      H2004   1.085       .  S
C2001      C2002   1.407       .  A
C2002      C2005   1.439       .  S
C2005      N2007   1.158       .  T
C2006      N2008   1.157       .  T
C2009      C2010   1.404       .  A
C2009      C2014   1.417       .  A
C2010      H2015   1.085       .  S
C2010      C2011   1.402       .  A
C2011      C2012   1.411       .  A
C2011      C2018   1.440       .  S
C2012      C2013   1.398       .  A
C2013      H2016   1.078       .  S
C2013      C2014   1.398       .  A
C2014      C2017   1.445       .  S
C2017      N2019   1.157       .  T
C2018      N2020   1.156       .  T
C2021      C2022   1.399       .  A
C2021      C2026   1.410       .  A
C2022      H2027   1.085       .  S
C2022      C2023   1.399       .  A
C2023      C2024   1.413       .  A
C2023      C2030   1.440       .  S
C2024      C2025   1.402       .  A
C2025      H2028   1.085       .  S
C2025      C2026   1.399       .  A
C2026      C2029   1.442       .  S
C2029      N2031   1.157       .  T
C2030      N2032   1.156       .  T
C2033      C2038   1.415       .  A
C2034      H2039   1.083       .  S
C2034      C2035   1.402       .  A
C2035      C2042   1.442       .  S
C2036      C2037   1.402       .  A
C2037      H2040   1.086       .  S
C2037      C2038   1.397       .  A
C2038      C2041   1.442       .  S
C2041      N2043   1.157       .  T
C2042      N2044   1.157       .  T
C2045      C2046   1.401       .  A
C2045      C2050   1.415       .  A
C2046      H2051   1.082       .  S
C2046      C2047   1.394       .  A
C2047      C2048   1.420       .  A
C2047      C2054   1.446       .  S
C2048      C2049   1.408       .  A
C2049      H2052   1.084       .  S
C2049      C2050   1.407       .  A
C2050      C2053   1.442       .  S
C2053      N2055   1.157       .  T
C2054      N2056   1.158       .  T
C2057      C2058   1.405       .  A
C2057      C2062   1.415       .  A
C2058      H2063   1.085       .  S
C2058      C2059   1.400       .  A
C2059      C2060   1.409       .  A
C2059      C2066   1.443       .  S
C2060      C2061   1.400       .  A
C2061      H2064   1.085       .  S
C2061      C2062   1.398       .  A
C2062      C2065   1.445       .  S
C2065      N2067   1.157       .  T
C2066      N2068   1.157       .  T
C2069      C2070   1.401   1_455  A
C2070      H2075   1.085       .  S
C2070      C2071   1.402       .  A
C2071      C2072   1.420   1_655  A
C2071      C2078   1.442       .  S
C2073      H2076   1.084       .  S
C2073      C2074   1.405       .  A
C2074      C2077   1.442       .  S
C2077      N2079   1.157       .  T
C2078      N2080   1.157       .  T
