geometry optimzed in LAMMPS
_audit_creation_date              2020-11-30 
_audit_creation_method            'lammps2cif' 
_symmetry_space_group_name_H-M    'P1' 
_symmetry_Int_Tables_number       1 
_symmetry_cell_setting            triclinic 
loop_ 
_symmetry_equiv_pos_as_xyz 
  x,y,z 
_cell_length_a                    52.72411869 
_cell_length_b                    52.661247426776136 
_cell_length_c                    28.081850695663398 
_cell_angle_alpha                 89.94434995143214 
_cell_angle_beta                  90.01370798930624 
_cell_angle_gamma                 120.08334579843027 
loop_ 
_atom_site_label 
_atom_site_type_symbol 
_atom_site_fract_x 
_atom_site_fract_y 
_atom_site_fract_z 
_atom_site_charge 
O1          O  0.47739051  0.05485346  0.58198003    -0.75200
O2          O  0.48993869  0.03083252  0.63611117    -0.54100
C3          C  0.48033316  0.04814092  0.62497975     0.78500
O4          O  0.42244629  0.94368536  0.41944120    -0.59800
O5          O  0.45753790  0.96982351  0.36393751    -0.52800
C6          C  0.43127989  0.95072232  0.37620483     0.70600
O7          O  0.42207935  0.94518634  0.58026355    -0.74300
O8          O  0.45825890  0.97012161  0.63481341    -0.54900
C9          C  0.43152738  0.95213644  0.62327782     0.76600
O10         O  0.47858782  0.05780112  0.42038381    -0.59500
O11         O  0.48906158  0.03301233  0.36469494    -0.52600
C12         C  0.48079955  0.05123122  0.37694906     0.73200
Zr13       Zr  0.48676588  0.04518428  0.50062643     2.54700
O14         O  0.44265084  0.04902452  0.50074113    -0.80100
O15         O  0.51702536  0.09845464  0.50303702    -0.93500
Zr16       Zr  0.44185692  0.95776758  0.49973545     2.64700
O17         O  0.39723819  0.96076642  0.49850154    -0.98400
O18         O  0.41367360  0.90439656  0.50120610    -0.80500
O19         O  0.46409098  0.00124031  0.54572826    -0.83800
O20         O  0.46343667  0.00165833  0.45464987    -2.18600
O21         O  0.58098183  0.05825498  0.41872177    -0.67200
O22         O  0.54494764  0.03263121  0.36427121    -0.51800
C23         C  0.57146721  0.05134451  0.37576350     0.71500
O24         O  0.52551711  0.94396204  0.57643016    -0.60100
O25         O  0.51597947  0.96939897  0.63245942    -0.52100
C26         C  0.52398198  0.95103242  0.61973807     0.73300
O27         O  0.52134957  0.94267912  0.41587235    -0.71500
O28         O  0.51233449  0.96974991  0.36234258    -0.50200
C29         C  0.51925524  0.95029312  0.37308788     0.74700
O30         O  0.58195338  0.05638399  0.57955036    -0.66900
O31         O  0.54605748  0.03110953  0.63414350    -0.54100
C32         C  0.57272916  0.04933321  0.62273779     0.73100
Zr33       Zr  0.56149801  0.04388993  0.49910561     2.77500
O34         O  0.60662484  0.04180185  0.49903816    -0.97600
O35         O  0.58754670  0.09730516  0.49882344    -0.78400
Zr36       Zr  0.51622553  0.95614196  0.49710000     2.70100
O37         O  0.56043258  0.95258720  0.49238825    -0.79700
O38         O  0.48557984  0.90294979  0.50020977    -0.98800
Zr39       Zr  0.50219332  0.00026422  0.58927484     2.21500
Zr40       Zr  0.50119585  0.00128348  0.40898268     2.11100
O41         O  0.53937535  0.00037755  0.45271574    -2.47500
O42         O  0.53969192  0.99964430  0.54345833    -0.79500
O43         O  0.52438522  0.04564137  0.45362009    -0.71700
O44         O  0.47890677  0.95579346  0.54475945    -2.32600
O45         O  0.52478112  0.04523345  0.54598602    -2.28800
O46         O  0.47831037  0.95632952  0.45213989    -0.73400
H47         H  0.44871716  0.00181165  0.43438431     0.78600
H48         H  0.47040296  0.93886430  0.56550533     0.79700
H49         H  0.55379764  0.00021589  0.43172484     0.81900
H50         H  0.53338228  0.06192603  0.56715989     0.79500
H51         H  0.42844071  0.89833826  0.50660594     0.42500
H52         H  0.47698987  0.89726857  0.46793584     0.41500
H53         H  0.57638443  0.97222571  0.50212576     0.41200
H54         H  0.60391958  0.02774658  0.47344270     0.39100
H55         H  0.57292386  0.10252532  0.50991569     0.42200
H56         H  0.50473456  0.10504538  0.51952308     0.37000
H57         H  0.42768305  0.03089891  0.48477895     0.43100
H58         H  0.39867769  0.97200780  0.46936773     0.39600
H59         H  0.62170531  0.06113519  0.48651189     0.44500
H60         H  0.51794435  0.10492196  0.46965411     0.43200
H61         H  0.38141328  0.94050043  0.49156359     0.43300
H62         H  0.49965186  0.89573624  0.50215984     0.43700
O63         O  0.05399681  0.57795709  0.58157555    -0.75200
O64         O  0.03027023  0.54208800  0.63693134    -0.54100
C65         C  0.04714861  0.56891190  0.62488629     0.78500
O66         O  0.94927656  0.52941732  0.41941751    -0.59800
O67         O  0.97087315  0.51392862  0.36540981    -0.52800
C68         C  0.95494947  0.52516397  0.37647974     0.70600
O69         O  0.94814094  0.52978948  0.58052574    -0.74300
O70         O  0.97019763  0.51535445  0.63550735    -0.54900
C71         C  0.95419183  0.52634876  0.62365735     0.76600
O72         O  0.06086511  0.57632556  0.42073050    -0.59500
O73         O  0.03314100  0.54107840  0.36657320    -0.52600
C74         C  0.05319341  0.56719448  0.37761225     0.73200
Zr75       Zr  0.04711031  0.55667768  0.50183614     2.54700
O76         O  0.06401258  0.60897295  0.49854490    -0.80100
O77         O  0.09807063  0.56930757  0.51026191    -0.93500
Zr78       Zr  0.95956255  0.52024776  0.50060078     2.64700
O79         O  0.96288742  0.56808029  0.50218620    -0.98400
O80         O  0.90624369  0.49499560  0.49875394    -0.80500
O81         O  0.00316671  0.53917942  0.54607041    -0.83800
O82         O  0.00360751  0.53922082  0.45616890    -2.18600
O83         O  0.05084561  0.46932136  0.42257395    -0.67200
O84         O  0.02879737  0.48369969  0.36761474    -0.51800
C85         C  0.04530649  0.47324026  0.37931779     0.71500
O86         O  0.94080221  0.42051932  0.58365339    -0.60100
O87         O  0.96699722  0.45640747  0.63794800    -0.52100
C88         C  0.94853077  0.42980286  0.62662442     0.73300
O89         O  0.93718848  0.42071749  0.42302362    -0.71500
O90         O  0.96591953  0.45528675  0.36837551    -0.50200
C91         C  0.94563959  0.42939301  0.38007999     0.74700
O92         O  0.04730506  0.46673701  0.58415609    -0.66900
O93         O  0.02675107  0.48337711  0.63791712    -0.54100
C94         C  0.04177925  0.47113593  0.62708980     0.73100
Zr95       Zr  0.03866234  0.47759910  0.50308529     2.77500
O96         O  0.03679599  0.43042313  0.50318877    -0.97600
O97         O  0.09199563  0.50408804  0.50504837    -0.78400
Zr98       Zr  0.95122252  0.44095157  0.50291143     2.70100
O99         O  0.94243970  0.39101259  0.49947365    -0.79700
O100        O  0.89862764  0.42217429  0.50740849    -0.98800
Zr101      Zr  0.99870748  0.49913299  0.59156954     2.21500
Zr102      Zr  0.99934420  0.49864180  0.41215798     2.11100
O103        O  0.99498313  0.45851840  0.45780223    -2.47500
O104        O  0.99478815  0.45880294  0.54796263    -0.79500
O105        O  0.04374093  0.51733078  0.45595190    -0.71700
O106        O  0.95424614  0.48039739  0.54792802    -2.32600
O107        O  0.04361600  0.51769799  0.54901166    -2.28800
O108        O  0.95465112  0.47997485  0.45536534    -0.73400
H109        H  0.00529401  0.55464322  0.43546805     0.78600
H110        H  0.93761184  0.47345261  0.56904935     0.79700
H111        H  0.99357334  0.44303639  0.43759319     0.81900
H112        H  0.06010148  0.52476190  0.57049019     0.79500
H113        H  0.89998144  0.48452635  0.52960541     0.42500
H114        H  0.89507885  0.42618223  0.54044175     0.41500
H115        H  0.96226890  0.39333247  0.50043929     0.41200
H116        H  0.02440602  0.41968222  0.47551999     0.39100
H117        H  0.09711396  0.49257559  0.52690447     0.42200
H118        H  0.10853570  0.59032483  0.51914881     0.37000
H119        H  0.04698316  0.61056235  0.50934564     0.43100
H120        H  0.97479923  0.57859080  0.47394814     0.39600
H121        H  0.05680704  0.43504997  0.49406421     0.44500
H122        H  0.10461574  0.56898136  0.47733504     0.43200
H123        H  0.94285883  0.56395498  0.49437887     0.43300
H124        H  0.89538835  0.43583309  0.48754716     0.43700
O125        O  0.51763285  0.57691304  0.58430600    -0.75200
O126        O  0.51167697  0.54138373  0.63712526    -0.54100
C127        C  0.51713767  0.56740695  0.62683366     0.78500
O128        O  0.42051717  0.47792516  0.41890717    -0.59800
O129        O  0.45670166  0.49046462  0.36417236    -0.52800
C130        C  0.43008435  0.48203885  0.37579921     0.70600
O131        O  0.41950519  0.47316200  0.57934543    -0.74300
O132        O  0.45547267  0.48489120  0.63439063    -0.54900
C133        C  0.42865468  0.47550243  0.62249086     0.76600
O134        O  0.52370973  0.58126812  0.42231506    -0.59500
O135        O  0.51255520  0.54599738  0.36625511    -0.52600
C136        C  0.52134992  0.57254136  0.37878358     0.73200
Zr137      Zr  0.51374124  0.55958693  0.50213888     2.54700
O138        O  0.48355074  0.58249673  0.49749895    -0.80100
O139        O  0.55832848  0.60728578  0.50747671    -0.93500
Zr140      Zr  0.43997125  0.48251661  0.49924002     2.64700
O141        O  0.41230614  0.50809486  0.50365162    -0.98400
O142        O  0.39478067  0.43534621  0.49584946    -0.80500
O143        O  0.47624936  0.52060936  0.54710523    -0.83800
O144        O  0.47656852  0.52227079  0.45471657    -2.18600
O145        O  0.58039493  0.52893359  0.41790506    -0.67200
O146        O  0.54406910  0.51685831  0.36341840    -0.51800
C147        C  0.57098222  0.52662649  0.37484230     0.71500
O148        O  0.47833790  0.41970995  0.57592517    -0.60100
O149        O  0.48682030  0.45433648  0.63207268    -0.52100
C150        C  0.47904972  0.42803180  0.61932551     0.73300
O151        O  0.47973319  0.42274486  0.41440389    -0.71500
O152        O  0.48713990  0.45875525  0.36159600    -0.50200
C153        C  0.48047331  0.43234726  0.37187961     0.74700
O154        O  0.57979105  0.52531077  0.57900434    -0.66900
O155        O  0.54342536  0.51038653  0.63442598    -0.54100
C156        C  0.57038056  0.52094462  0.62225265     0.73100
Zr157      Zr  0.55995483  0.51838094  0.49846649     2.77500
O158        O  0.58499336  0.49021273  0.49421874    -0.97600
O159        O  0.60616470  0.56466782  0.50004428    -0.78400
Zr160      Zr  0.48624565  0.44124364  0.49616206     2.70100
O161        O  0.51597398  0.41775956  0.49502112    -0.79700
O162        O  0.44128856  0.39377245  0.49507960    -0.98800
Zr163      Zr  0.49975784  0.49882785  0.58938040     2.21500
Zr164      Zr  0.50000826  0.50175526  0.40910588     2.11100
O165        O  0.52365113  0.48016648  0.45117789    -2.47500
O166        O  0.52353345  0.47866108  0.54374946    -0.79500
O167        O  0.53733744  0.54018878  0.45494100    -0.71700
O168        O  0.46243316  0.46059360  0.54286155    -2.32600
O169        O  0.53733249  0.53876534  0.54573363    -2.28800
O170        O  0.46239572  0.46180974  0.45219064    -0.73400
H171        H  0.46790228  0.53071068  0.43445278     0.78600
H172        H  0.44777666  0.44523427  0.56261873     0.79700
H173        H  0.53262403  0.47272419  0.42952720     0.81900
H174        H  0.55167870  0.55342085  0.56677453     0.79500
H175        H  0.40112835  0.42068627  0.49995548     0.42500
H176        H  0.43012061  0.39465913  0.46738873     0.41500
H177        H  0.52564486  0.42271135  0.46345172     0.41200
H178        H  0.60233982  0.50088430  0.51506779     0.39100
H179        H  0.60074833  0.57961129  0.49171948     0.42200
H180        H  0.57067454  0.60459039  0.53122433     0.37000
H181        H  0.49257579  0.59898718  0.52038495     0.43100
H182        H  0.41978210  0.52226359  0.47690662     0.39600
H183        H  0.57202486  0.47182897  0.51164852     0.44500
H184        H  0.55230142  0.62017649  0.52345059     0.43200
H185        H  0.39216442  0.49324494  0.49399793     0.43300
H186        H  0.44759415  0.37968781  0.48553800     0.43700
O187        O  0.79184278  0.49406304  0.99398566    -0.75200
O188        O  0.83957371  0.53041120  0.00060502    -0.54100
C189        C  0.81952076  0.50335276  0.99600286     0.78500
O190        O  0.74522149  0.57276018  0.86603641    -0.59800
O191        O  0.71460145  0.57148440  0.92421397    -0.52800
C192        C  0.72123355  0.57114175  0.88025248     0.70600
O193        O  0.83130808  0.57401314  0.86793399    -0.74300
O194        O  0.86015383  0.57320947  0.92781119    -0.54900
C195        C  0.85381621  0.57316290  0.88359115     0.76600
O196        O  0.70544193  0.49220795  0.99684357    -0.59500
O197        O  0.69247636  0.52748444  0.99790916    -0.52600
C198        C  0.68628413  0.50054610  0.99673206     0.73200
Zr199      Zr  0.75831314  0.51310835  0.00009208     2.54700
O200        O  0.73870824  0.47263911  0.94356667    -0.80100
O201        O  0.74197609  0.47919061  0.06718596    -0.93500
Zr202      Zr  0.78876677  0.57478352  0.89985445     2.64700
O203        O  0.77108072  0.53714266  0.83834195    -0.98400
O204        O  0.80830529  0.61359956  0.84022894    -0.80500
O205        O  0.79793474  0.54383185  0.94957105    -0.83800
O206        O  0.74857991  0.54270517  0.94833566    -2.18600
O207        O  0.74390253  0.57363141  0.13190067    -0.67200
O208        O  0.71356637  0.57102455  0.07185026    -0.51800
C209        C  0.72006135  0.57176165  0.11619917     0.71500
O210        O  0.87213403  0.65812628  0.99911771    -0.60100
O211        O  0.88269675  0.62102298  0.99688509    -0.52100
C212        C  0.89016485  0.64829044  0.99658625     0.73300
O213        O  0.78486899  0.65655321  0.99706908    -0.71500
O214        O  0.73758609  0.61852737  0.99824245    -0.50200
C215        C  0.75684962  0.64601808  0.99793361     0.74700
O216        O  0.82917816  0.57351494  0.13266379    -0.66900
O217        O  0.86046723  0.57511132  0.07551720    -0.54100
C218        C  0.85251587  0.57356585  0.11928841     0.73100
Zr219      Zr  0.78754668  0.57510382  0.09912984     2.77500
O220        O  0.80810189  0.61448880  0.15763412    -0.97600
O221        O  0.76823644  0.53771896  0.16109004    -0.78400
Zr222      Zr  0.81841452  0.63672517  0.99891916     2.70100
O223        O  0.83603980  0.67456631  0.05999810    -0.79700
O224        O  0.83672523  0.67219492  0.93405650    -0.98800
Zr225      Zr  0.83705228  0.57525056  0.00100793     2.21500
Zr226      Zr  0.73892179  0.57338896  0.99840769     2.11100
O227        O  0.77828902  0.60575847  0.04912634    -2.47500
O228        O  0.82816099  0.60675247  0.05062481    -0.79500
O229        O  0.74773155  0.54286171  0.05003836    -0.71700
O230        O  0.82848588  0.60629954  0.94948362    -2.32600
O231        O  0.79726912  0.54376469  0.05141391    -2.28800
O232        O  0.77869708  0.60559450  0.94816601    -0.73400
H233        H  0.73190723  0.53034275  0.92854029     0.78600
H234        H  0.84542521  0.61826569  0.92988863     0.79700
H235        H  0.77283432  0.61747266  0.06833354     0.81900
H236        H  0.80216043  0.53176509  0.07106435     0.79500
H237        H  0.82363443  0.63105530  0.85713807     0.42500
H238        H  0.81904395  0.66812498  0.91570151     0.41500
H239        H  0.84670397  0.66892560  0.08277361     0.41200
H240        H  0.80422861  0.62968756  0.14457993     0.39100
H241        H  0.75076007  0.52095512  0.14653517     0.42200
H242        H  0.75904877  0.47704445  0.07555053     0.37000
H243        H  0.75170932  0.48058862  0.91544626     0.43100
H244        H  0.75144650  0.52186135  0.84942184     0.39600
H245        H  0.79494891  0.60648757  0.18556047     0.44500
H246        H  0.72762970  0.46000905  0.05324035     0.43200
H247        H  0.76714301  0.54615306  0.81043613     0.43300
H248        H  0.84305217  0.69130805  0.94965408     0.43700
O249        O  0.70362861  0.20975356  0.00772907    -0.75200
O250        O  0.69206833  0.16193553  0.00074338    -0.54100
C251        C  0.68511490  0.18202749  0.00491144     0.78500
O252        O  0.83177460  0.25688718  0.87071403    -0.59800
O253        O  0.86061823  0.28607845  0.93098119    -0.52800
C254        C  0.85443388  0.28007471  0.88658576     0.70600
O255        O  0.74522882  0.17360966  0.86754278    -0.74300
O256        O  0.71471641  0.14358108  0.92588371    -0.54900
C257        C  0.72141645  0.15116867  0.88215537     0.76600
O258        O  0.78960890  0.29540857  0.01289793    -0.59500
O259        O  0.83760963  0.30784627  0.00677566    -0.52600
C260        C  0.81720789  0.31434410  0.01127742     0.73200
Zr261      Zr  0.75687254  0.24269432  0.00552690     2.54700
O262        O  0.74001072  0.26138839  0.94094649    -0.80100
O263        O  0.73789420  0.26090934  0.06776024    -0.93500
Zr264      Zr  0.78864451  0.21417075  0.90309108     2.64700
O265        O  0.77072019  0.23449604  0.84260896    -0.98400
O266        O  0.80738471  0.19290541  0.84593660    -0.80500
O267        O  0.74805890  0.20438591  0.95218349    -0.83800
O268        O  0.79683646  0.25337178  0.95427385    -2.18600
O269        O  0.82634957  0.25553407  0.13560019    -0.67200
O270        O  0.85732172  0.28600569  0.07829821    -0.51800
C271        C  0.84884039  0.27953375  0.12171056     0.71500
O272        O  0.78592267  0.12793742  0.00027817    -0.60100
O273        O  0.73842824  0.11768546  0.99704752    -0.52100
C274        C  0.75803282  0.10998351  0.99823747     0.73300
O275        O  0.87228833  0.21380679  0.00262425    -0.71500
O276        O  0.88254350  0.26134131  0.00838052    -0.50200
C277        C  0.89015186  0.24163187  0.00683199     0.74700
O278        O  0.74456914  0.16773771  0.13366649    -0.66900
O279        O  0.71442551  0.13987121  0.07342701    -0.54100
C280        C  0.72082773  0.14589023  0.11766435     0.73100
Zr281      Zr  0.78794013  0.20995041  0.10190993     2.77500
O282        O  0.81101866  0.19073697  0.15462489    -0.97600
O283        O  0.76841301  0.22309803  0.17009501    -0.78400
Zr284      Zr  0.81888829  0.18133862  0.99979250     2.70100
O285        O  0.83766641  0.16057119  0.05796134    -0.79700
O286        O  0.83569312  0.16493078  0.93200180    -0.98800
Zr287      Zr  0.73917162  0.16383689  0.00058431     2.21500
Zr288      Zr  0.83653165  0.26111391  0.00423696     2.11100
O289        O  0.82836850  0.22035601  0.05275503    -2.47500
O290        O  0.77863956  0.17058166  0.05058479    -0.79500
O291        O  0.79653795  0.25096236  0.05526406    -0.71700
O292        O  0.77906625  0.17289466  0.94983145    -2.32600
O293        O  0.74772839  0.20231687  0.05402008    -2.28800
O294        O  0.82884626  0.22249403  0.95162919    -0.73400
H295        H  0.80179166  0.27070937  0.93572489     0.78600
H296        H  0.77397535  0.15630537  0.92929984     0.79700
H297        H  0.84510248  0.22512036  0.07269074     0.81900
H298        H  0.73085213  0.19715684  0.07382083     0.79500
H299        H  0.80983901  0.20391231  0.81606661     0.42500
H300        H  0.85213829  0.18309407  0.91841566     0.41500
H301        H  0.82255205  0.15252595  0.08325341     0.41200
H302        H  0.80579283  0.19392715  0.18705181     0.39100
H303        H  0.76500895  0.23881713  0.15803713     0.42200
H304        H  0.72877764  0.24472253  0.09122151     0.37000
H305        H  0.72936527  0.24446075  0.91923812     0.43100
H306        H  0.77867781  0.25525765  0.85188961     0.39600
H307        H  0.79951308  0.16920079  0.15013513     0.44500
H308        H  0.72117949  0.26152081  0.05286885     0.43200
H309        H  0.78160388  0.23537084  0.81333969     0.43300
H310        H  0.84510174  0.15453645  0.94638790     0.43700
O311        O  0.29579966  0.78717896  0.99532909    -0.75200
O312        O  0.30826364  0.83534273  0.99965597    -0.54100
C313        C  0.31472396  0.81486721  0.99638378     0.78500
O314        O  0.17204433  0.74336375  0.86678276    -0.59800
O315        O  0.14164660  0.71313249  0.92453645    -0.52800
C316        C  0.14932263  0.71964517  0.88065195     0.70600
O317        O  0.25766562  0.82680491  0.86714188    -0.74300
O318        O  0.28798825  0.85597478  0.92598887    -0.54900
C319        C  0.28169237  0.84884746  0.88192915     0.76600
O320        O  0.20892889  0.70227206  0.01060799    -0.59500
O321        O  0.16131371  0.69065898  0.00145702    -0.52600
C322        C  0.18123816  0.68376743  0.00794553     0.73200
Zr323      Zr  0.24275607  0.75499151  0.00268317     2.54700
O324        O  0.25944034  0.73125071  0.94655766    -0.80100
O325        O  0.26215472  0.74191108  0.07123129    -0.93500
Zr326      Zr  0.21343226  0.78633043  0.90073790     2.64700
O327        O  0.23371153  0.76901443  0.83935671    -0.98400
O328        O  0.19427907  0.80660679  0.84230766    -0.80500
O329        O  0.25288121  0.79448604  0.95080689    -0.83800
O330        O  0.20403887  0.74586294  0.94993564    -2.18600
O331        O  0.17227374  0.74219192  0.13199913    -0.67200
O332        O  0.14242328  0.71216480  0.07326496    -0.51800
C333        C  0.15018202  0.71820198  0.11715118     0.71500
O334        O  0.21566898  0.87154966  0.99654096    -0.60100
O335        O  0.26304398  0.88113480  0.99544757    -0.52100
C336        C  0.24369515  0.88918838  0.99460135     0.73300
O337        O  0.12825084  0.78504124  0.99647717    -0.71500
O338        O  0.11822008  0.73758896  0.99823553    -0.50200
C339        C  0.11027978  0.75700888  0.99726277     0.74700
O340        O  0.25756063  0.82629700  0.13173246    -0.66900
O341        O  0.28750074  0.85685286  0.07377340    -0.54100
C342        C  0.28167879  0.84852708  0.11746234     0.73100
Zr343      Zr  0.21166127  0.78762774  0.09916804     2.77500
O344        O  0.19026327  0.81029920  0.14793298    -0.97600
O345        O  0.22516503  0.77211692  0.17189333    -0.78400
Zr346      Zr  0.18209321  0.81797590  0.99815104     2.70100
O347        O  0.16417322  0.83661368  0.06134337    -0.79700
O348        O  0.16509808  0.83683589  0.93398759    -0.98800
Zr349      Zr  0.26196368  0.83479624  0.99999556     2.21500
Zr350      Zr  0.16392730  0.73783031  0.99915657     2.11100
O351        O  0.17162293  0.77780276  0.04920004    -2.47500
O352        O  0.22213313  0.82807776  0.04944707    -0.79500
O353        O  0.20291455  0.74686986  0.05156783    -0.71700
O354        O  0.22247920  0.82677960  0.94884325    -2.32600
O355        O  0.25210630  0.79503905  0.05178237    -2.28800
O356        O  0.17271896  0.77765532  0.94827337    -0.73400
H357        H  0.19934827  0.72880149  0.93088157     0.78600
H358        H  0.22789520  0.84357396  0.92858606     0.79700
H359        H  0.15454374  0.77266779  0.06848572     0.81900
H360        H  0.26888724  0.79924836  0.07118141     0.79500
H361        H  0.19436827  0.79717570  0.81187327     0.42500
H362        H  0.15172168  0.81932766  0.91501540     0.41500
H363        H  0.14729334  0.81899088  0.07538212     0.41200
H364        H  0.18442357  0.79868030  0.17774275     0.39100
H365        H  0.23515589  0.76155177  0.16068674     0.42200
H366        H  0.26519740  0.72587311  0.05968934     0.37000
H367        H  0.26058437  0.71597019  0.96544732     0.43100
H368        H  0.22453763  0.74762592  0.84486369     0.39600
H369        H  0.20709258  0.82953248  0.15722328     0.44500
H370        H  0.24538616  0.73219176  0.09348449     0.43200
H371        H  0.22505555  0.77085116  0.80917934     0.43300
H372        H  0.15207815  0.84274884  0.94982160     0.43700
O373        O  0.57523841  0.82912479  0.86385762    -0.75200
O374        O  0.57594834  0.85985796  0.92166877    -0.54100
C375        C  0.57466218  0.85205832  0.87795639     0.78500
O376        O  0.49464040  0.70618980  0.99438599    -0.59800
O377        O  0.52974327  0.69308448  0.99747869    -0.52800
C378        C  0.50288636  0.68693574  0.99449290     0.70600
O379        O  0.49539190  0.79195345  0.00162256    -0.74300
O380        O  0.53184606  0.83975715  0.99580211    -0.54900
C381        C  0.50473287  0.81969246  0.99992179     0.76600
O382        O  0.57478733  0.74363495  0.86747898    -0.59500
O383        O  0.57343390  0.71410045  0.92795197    -0.52600
C384        C  0.57278173  0.71974769  0.88354354     0.73200
Zr385      Zr  0.57864293  0.78868971  0.89890591     2.54700
O386        O  0.54575833  0.77105884  0.83069728    -0.80100
O387        O  0.62151504  0.80968856  0.84720387    -0.93500
Zr388      Zr  0.51543114  0.75915607  0.99676965     2.64700
O389        O  0.48104344  0.74420587  0.93057223    -0.98400
O390        O  0.47628798  0.73854286  0.05566083    -0.80500
O391        O  0.54654533  0.79813061  0.94535161    -0.83800
O392        O  0.54593826  0.74916722  0.94809918    -2.18600
O393        O  0.65851453  0.78532977  0.99626534    -0.67200
O394        O  0.62051368  0.73809391  0.99814184    -0.51800
C395        C  0.64797909  0.75725486  0.99574745     0.71500
O396        O  0.57407739  0.83240457  0.12874401    -0.60100
O397        O  0.57399530  0.86126884  0.06835537    -0.52100
C398        C  0.57276963  0.85462231  0.11264639     0.73300
O399        O  0.56902884  0.74493388  0.13235761    -0.71500
O400        O  0.57169084  0.71517016  0.07620435    -0.50200
C401        C  0.56835512  0.72124224  0.11935706     0.74700
O402        O  0.65990156  0.87272218  0.00438856    -0.66900
O403        O  0.62282971  0.88328080  0.00187401    -0.54100
C404        C  0.65001046  0.89075062  0.00504881     0.73100
Zr405      Zr  0.63893015  0.81915815  0.99986247     2.77500
O406        O  0.67636221  0.83635689  0.06161476    -0.97600
O407        O  0.67521277  0.83783267  0.93623274    -0.78400
Zr408      Zr  0.57670548  0.79039141  0.09805021     2.70100
O409        O  0.61858404  0.81036834  0.15175493    -0.79700
O410        O  0.54351320  0.77519901  0.16602213    -0.98800
Zr411      Zr  0.57707234  0.83771760  0.99650627     2.21500
Zr412      Zr  0.57556718  0.73967600  0.00085337     2.11100
O413        O  0.60760811  0.77966438  0.05113844    -2.47500
O414        O  0.60835899  0.82982184  0.04825603    -0.79500
O415        O  0.60831539  0.77879502  0.95008430    -0.71700
O416        O  0.54553497  0.79858443  0.04774056    -2.32600
O417        O  0.60931552  0.82924064  0.94794993    -2.28800
O418        O  0.54476769  0.74970981  0.04974921    -0.73400
H419        H  0.53379119  0.73233928  0.92845044     0.78600
H420        H  0.53339519  0.80350603  0.06687226     0.79700
H421        H  0.61897332  0.77424745  0.07134294     0.81900
H422        H  0.62145638  0.84628863  0.92864047     0.79500
H423        H  0.48434062  0.75186813  0.08337351     0.42500
H424        H  0.52775297  0.77916958  0.15643233     0.41500
H425        H  0.62430336  0.83125472  0.15563128     0.41200
H426        H  0.67024779  0.81923519  0.08285236     0.39100
H427        H  0.67126318  0.85163997  0.91818720     0.42200
H428        H  0.62976672  0.83117580  0.84926156     0.37000
H429        H  0.52866358  0.77279995  0.84056878     0.43100
H430        H  0.48620434  0.76269912  0.91369428     0.39600
H431        H  0.69406499  0.83875618  0.04524028     0.44500
H432        H  0.61331427  0.80456442  0.81461145     0.43200
H433        H  0.48726423  0.73365603  0.90860562     0.43300
H434        H  0.55441303  0.78969255  0.19136569     0.43700
O435        O  0.20886058  0.50651446  0.99827841    -0.75200
O436        O  0.16127482  0.46985907  0.00597112    -0.54100
C437        C  0.18117737  0.49696656  0.00196732     0.78500
O438        O  0.25518453  0.42818659  0.86651203    -0.59800
O439        O  0.28566726  0.42903184  0.92454362    -0.52800
C440        C  0.27903744  0.42950253  0.88067146     0.70600
O441        O  0.17120797  0.43084723  0.87050815    -0.74300
O442        O  0.14059186  0.42842168  0.92979963    -0.54900
C443        C  0.14843822  0.43122035  0.88586327     0.76600
O444        O  0.29503550  0.50756207  0.00879784    -0.59500
O445        O  0.30769792  0.47231309  0.00017159    -0.52600
C446        C  0.31404616  0.49908409  0.00620245     0.73200
Zr447      Zr  0.24227215  0.48714858  0.00175739     2.54700
O448        O  0.26362275  0.52450209  0.93994446    -0.80100
O449        O  0.25685295  0.52421945  0.06368037    -0.93500
Zr450      Zr  0.21173107  0.42610422  0.90070263     2.64700
O451        O  0.22883994  0.46210686  0.83656091    -0.98400
O452        O  0.19115824  0.38619443  0.84307316    -0.80500
O453        O  0.20265430  0.45679468  0.95118630    -0.83800
O454        O  0.25205545  0.45802825  0.94907891    -2.18600
O455        O  0.25813920  0.43011462  0.13045785    -0.67200
O456        O  0.28763604  0.43076328  0.07048246    -0.51800
C457        C  0.28203953  0.43236220  0.11449561     0.71500
O458        O  0.12777266  0.34230055  0.00130828    -0.60100
O459        O  0.11785222  0.37974298  0.00127996    -0.52100
C460        C  0.10986078  0.35236514  0.00117362     0.73300
O461        O  0.21514255  0.34329390  0.99763901    -0.71500
O462        O  0.26225287  0.38143485  0.99797414    -0.50200
C463        C  0.24320559  0.35386263  0.99806580     0.74700
O464        O  0.17151631  0.42661725  0.13414938    -0.66900
O465        O  0.14062029  0.42602448  0.07703968    -0.54100
C466        C  0.14866790  0.42750722  0.12071743     0.73100
Zr467      Zr  0.21220084  0.42368145  0.09968249     2.77500
O468        O  0.19224745  0.38105299  0.15196083    -0.97600
O469        O  0.22811692  0.45590513  0.16872973    -0.78400
Zr470      Zr  0.18150690  0.36320549  0.99820298     2.70100
O471        O  0.16274139  0.32295521  0.05519367    -0.79700
O472        O  0.16345317  0.32990162  0.93054658    -0.98800
Zr473      Zr  0.16356330  0.42511915  0.00247093     2.21500
Zr474      Zr  0.26105081  0.42662341  0.99836281     2.11100
O475        O  0.22172143  0.39366639  0.04883004    -2.47500
O476        O  0.17169909  0.39267305  0.05095602    -0.79500
O477        O  0.25195466  0.45646962  0.05094736    -0.71700
O478        O  0.17163569  0.39426770  0.94969956    -2.32600
O479        O  0.20341004  0.45600226  0.05299326    -2.28800
O480        O  0.22142959  0.39470045  0.94796183    -0.73400
H481        H  0.26891498  0.47058889  0.92972896     0.78600
H482        H  0.15460139  0.38263639  0.93011359     0.79700
H483        H  0.22734761  0.38195972  0.06774474     0.81900
H484        H  0.19876323  0.46798112  0.07310103     0.79500
H485        H  0.17099805  0.38228349  0.83718620     0.42500
H486        H  0.18078452  0.33641440  0.90971928     0.41500
H487        H  0.17657089  0.33073205  0.08230954     0.41200
H488        H  0.20630084  0.37382763  0.14987435     0.39100
H489        H  0.23884262  0.47593221  0.15507933     0.42200
H490        H  0.27157425  0.54270452  0.04822202     0.37000
H491        H  0.24891225  0.51703482  0.91402152     0.43100
H492        H  0.24968008  0.47598454  0.84403132     0.39600
H493        H  0.19504992  0.38933841  0.18444477     0.44500
H494        H  0.26825156  0.51957975  0.08656054     0.43200
H495        H  0.22938811  0.45131964  0.80808612     0.43300
H496        H  0.15964892  0.31082640  0.94356453     0.43700
O497        O  0.43286152  0.17302015  0.86845632    -0.75200
O498        O  0.42981841  0.14199106  0.92757374    -0.54100
C499        C  0.43354875  0.15035299  0.88386058     0.78500
O500        O  0.50547751  0.29573671  0.00770405    -0.59800
O501        O  0.47009005  0.30802209  0.99705821    -0.52800
C502        C  0.49670311  0.31450434  0.00462124     0.70600
O503        O  0.50658705  0.21077456  0.99241714    -0.74300
O504        O  0.47100044  0.16293174  0.00183777    -0.54900
C505        C  0.49787385  0.18323619  0.99637129     0.76600
O506        O  0.42406198  0.25367534  0.86297987    -0.59500
O507        O  0.42637727  0.28494045  0.92119099    -0.52600
C508        C  0.42562032  0.27763797  0.87733696     0.73200
Zr509      Zr  0.42405274  0.21122003  0.89800064     2.54700
O510        O  0.45701243  0.22961832  0.82988326    -0.80100
O511        O  0.38183093  0.18492899  0.84593840    -0.93500
Zr512      Zr  0.48644695  0.24354147  0.99628078     2.64700
O513        O  0.52108751  0.26565442  0.93088707    -0.98400
O514        O  0.52663465  0.25901396  0.05255990    -0.80500
O515        O  0.45590976  0.20323245  0.94732324    -0.83800
O516        O  0.45609567  0.25237484  0.94494560    -2.18600
O517        O  0.34236339  0.21441520  0.99443800    -0.67200
O518        O  0.37983688  0.26198508  0.99278060    -0.51800
C519        C  0.35250364  0.24242597  0.99223804     0.71500
O520        O  0.42754205  0.17306728  0.13192016    -0.60100
O521        O  0.42772241  0.14236147  0.07497133    -0.52100
C522        C  0.42893706  0.15043743  0.11854404     0.73300
O523        O  0.42888666  0.25896083  0.12819412    -0.71500
O524        O  0.42801921  0.28752536  0.06799875    -0.50200
C525        C  0.42982664  0.28235869  0.11226792     0.74700
O526        O  0.34278734  0.12744026  0.00067188    -0.66900
O527        O  0.38062750  0.11808263  0.00139794    -0.54100
C528        C  0.35319394  0.10979600  0.00179307     0.73100
Zr529      Zr  0.36281727  0.18116696  0.99795219     2.77500
O530        O  0.32570902  0.16339852  0.06024295    -0.97600
O531        O  0.32646910  0.16220954  0.93447102    -0.78400
Zr532      Zr  0.42505332  0.21398043  0.09700581     2.70100
O533        O  0.38602243  0.19622850  0.15600241    -0.79700
O534        O  0.46358611  0.23261784  0.15696224    -0.98800
Zr535      Zr  0.42563250  0.16437237  0.00011677     2.21500
Zr536      Zr  0.42504444  0.26117465  0.99553425     2.11100
O537        O  0.39344883  0.22201965  0.04727603    -2.47500
O538        O  0.39375449  0.17274969  0.04955718    -0.79500
O539        O  0.39310625  0.22081302  0.94640403    -0.71700
O540        O  0.45668535  0.20499006  0.04902706    -2.32600
O541        O  0.39354546  0.17131316  0.94844905    -2.28800
O542        O  0.45633232  0.25334415  0.04662261    -0.73400
H543        H  0.46812379  0.26917614  0.92508566     0.78600
H544        H  0.46910407  0.20073567  0.06878061     0.79700
H545        H  0.38172019  0.22747067  0.06645672     0.81900
H546        H  0.38197150  0.15400284  0.92937149     0.79500
H547        H  0.51730394  0.25594745  0.08424374     0.42500
H548        H  0.47816875  0.25249595  0.14567702     0.41500
H549        H  0.39527707  0.19484316  0.18582965     0.41200
H550        H  0.33215649  0.18022414  0.08220649     0.39100
H551        H  0.33342717  0.15246233  0.91216703     0.42200
H552        H  0.39026357  0.18845596  0.81348161     0.37000
H553        H  0.47611917  0.24431915  0.84357184     0.43100
H554        H  0.54059225  0.27438295  0.94620828     0.39600
H555        H  0.30803479  0.16151797  0.04451000     0.44500
H556        H  0.37161897  0.19637988  0.84729217     0.43200
H557        H  0.51931838  0.24877410  0.91259252     0.43300
H558        H  0.45468607  0.23605241  0.18549839     0.43700
C559        C  0.32190427  0.29203274  0.96264228    -0.27500
C560        C  0.29715798  0.28095245  0.99219111     0.02100
C561        C  0.28872745  0.25494206  0.01808157     0.30200
C562        C  0.30595484  0.24140861  0.01612641    -0.19300
C563        C  0.33178494  0.25370917  0.98880353    -0.28700
C564        C  0.33908094  0.27872390  0.96075604     0.44200
C565        C  0.28198443  0.29821320  0.99767114     0.05400
O566        O  0.26441586  0.24325195  0.04677383    -0.57200
H567        H  0.29988649  0.22213673  0.03772703     0.18300
O568        O  0.36342926  0.29081517  0.93203559    -0.63900
H569        H  0.32834582  0.31160672  0.94161535     0.16800
C570        C  0.29805324  0.32777461  0.01185775     0.29000
C571        C  0.28479817  0.34501984  0.01267824    -0.24800
C572        C  0.25527346  0.33353822  0.99946729    -0.24100
C573        C  0.23871443  0.30346197  0.98730074     0.40500
C574        C  0.25212567  0.28607998  0.98644949    -0.26600
O575        O  0.32672022  0.33986472  0.02609138    -0.58500
H576        H  0.29800047  0.36771174  0.02363296     0.16100
O577        O  0.20964262  0.29087163  0.97552247    -0.59900
H578        H  0.23939912  0.26330969  0.97568734     0.14600
H579        H  0.35707242  0.27926046  0.90214283     0.46400
H580        H  0.33854421  0.35317588  0.99985722     0.41800
H581        H  0.20938555  0.29399962  0.94073265     0.45300
H582        H  0.27155462  0.25289723  0.07812250     0.36700
C583        C  0.45721985  0.60376868  0.01009075    -0.27500
C584        C  0.42993437  0.59866973  0.99353107     0.02100
C585        C  0.42797358  0.62167516  0.97180685     0.30200
C586        C  0.45229557  0.64983752  0.97062352    -0.19300
C587        C  0.47919952  0.65580103  0.99053713    -0.28700
C588        C  0.48190368  0.63217945  0.00852481     0.44200
C589        C  0.40262890  0.57077103  0.00349521     0.05400
O590        O  0.40181987  0.61711555  0.95378672    -0.57200
H591        H  0.44975722  0.66729991  0.95517031     0.18300
O592        O  0.50804607  0.63675305  0.02653276    -0.63900
H593        H  0.45902945  0.58610567  0.02644961     0.16800
C594        C  0.39549452  0.54452940  0.97968207     0.29000
C595        C  0.36682899  0.52044330  0.98257395    -0.24800
C596        C  0.34529068  0.52225159  0.00957921    -0.24100
C597        C  0.35353041  0.54764519  0.03701616     0.40500
C598        C  0.38184456  0.57163240  0.03348612    -0.26600
O599        O  0.41567035  0.54292799  0.95097035    -0.58500
H600        H  0.36107979  0.50096697  0.96179173     0.16100
O601        O  0.33377853  0.54968858  0.06622611    -0.59900
H602        H  0.38730875  0.59154543  0.05280889     0.14600
H603        H  0.50713101  0.63983010  0.06118769     0.46400
H604        H  0.42563132  0.53541485  0.97183146     0.41800
H605        H  0.33441946  0.54041182  0.09661156     0.45300
H606        H  0.40052548  0.60909252  0.92137292     0.36700
C607        C  0.29354635  0.96977781  0.96637363    -0.27500
C608        C  0.28173655  0.98305308  0.99511626     0.02100
C609        C  0.25565812  0.96521152  0.02045033     0.30200
C610        C  0.24232398  0.93447955  0.01806826    -0.19300
C611        C  0.25508493  0.92123545  0.99128294    -0.28700
C612        C  0.28043449  0.93923435  0.96414412     0.44200
C613        C  0.29832861  0.01542301  0.00090712     0.05400
O614        O  0.24381329  0.97758604  0.04928820    -0.57200
H615        H  0.22287816  0.92106057  0.03913221     0.18300
O616        O  0.29299077  0.92719578  0.93607014    -0.63900
H617        H  0.31347511  0.98324372  0.94637184     0.16800
C618        C  0.32659490  0.02909845  0.02078304     0.29000
C619        C  0.34353837  0.05965198  0.02198651    -0.24800
C620        C  0.33287450  0.07745585  0.00376668    -0.24100
C621        C  0.30401826  0.06372645  0.98556053     0.40500
C622        C  0.28693350  0.03288784  0.98441666    -0.26600
O623        O  0.33816397  0.01271925  0.03825124    -0.58500
H624        H  0.36542698  0.06944022  0.03675422     0.16100
O625        O  0.29264874  0.08007065  0.96728864    -0.59900
H626        H  0.26515708  0.02259629  0.96909380     0.14600
H627        H  0.28348188  0.92426657  0.90450159     0.46400
H628        H  0.33000561  0.00690617  0.07083431     0.41800
H629        H  0.29805246  0.08265844  0.93307393     0.45300
H630        H  0.25373486  0.98041780  0.08046178     0.36700
C631        C  0.14656231  0.60234204  0.98271522    -0.27500
C632        C  0.16235746  0.59470793  0.01414894     0.02100
C633        C  0.18187871  0.61561193  0.04677643     0.30200
C634        C  0.18687017  0.64428057  0.04558183    -0.19300
C635        C  0.17221516  0.65244186  0.01262624    -0.28700
C636        C  0.15114900  0.63098158  0.98210594     0.44200
C637        C  0.16212442  0.56675863  0.00798773     0.05400
O638        O  0.19803576  0.60887204  0.07715638    -0.57200
H639        H  0.20300186  0.66047245  0.06948674     0.18300
O640        O  0.13623540  0.63815208  0.94976361    -0.63900
H641        H  0.13160650  0.58640507  0.95727237     0.16800
C642        C  0.15139257  0.54505403  0.04371384     0.29000
C643        C  0.15622443  0.52123854  0.04029693    -0.24800
C644        C  0.17201940  0.51913516  0.00172511    -0.24100
C645        C  0.18127189  0.53999016  0.96484646     0.40500
C646        C  0.17620192  0.56353710  0.96805011    -0.26600
O647        O  0.13742737  0.54767517  0.08300159    -0.58500
H648        H  0.14896666  0.50525095  0.06886552     0.16100
O649        O  0.19625540  0.53810453  0.92634724    -0.59900
H650        H  0.18458874  0.58015479  0.94041180     0.14600
H651        H  0.14792577  0.64314667  0.92002597     0.46400
H652        H  0.11691083  0.54030446  0.07272786     0.41800
H653        H  0.18094437  0.52375975  0.90461967     0.45300
H654        H  0.18757631  0.60441464  0.10807814     0.36700
C655        C  0.43626091  0.82053070  0.03695856    -0.27500
C656        C  0.43320133  0.83654906  0.99979217     0.02100
C657        C  0.45580265  0.85032420  0.96592219     0.30200
C658        C  0.48035718  0.84653656  0.96807930    -0.19300
C659        C  0.48220185  0.82849448  0.00316163    -0.28700
C660        C  0.46039277  0.81626553  0.03863859     0.44200
C661        C  0.40445079  0.83469786  0.99341753     0.05400
O662        O  0.45366536  0.86681612  0.93000596    -0.57200
H663        H  0.49703144  0.85622038  0.94071041     0.18300
O664        O  0.46239914  0.79985716  0.07487784    -0.63900
H665        H  0.41905911  0.80994634  0.06334086     0.16800
C666        C  0.38321483  0.81264283  0.96413191     0.29000
C667        C  0.35426950  0.80686703  0.96479279    -0.24800
C668        C  0.34608336  0.82337265  0.99356056    -0.24100
C669        C  0.36777575  0.84665297  0.02087463     0.40500
C670        C  0.39666082  0.85185390  0.02124842    -0.26600
O671        O  0.39020331  0.79538416  0.93695668    -0.58500
H672        H  0.33803694  0.78908822  0.94319434     0.16100
O673        O  0.36054108  0.86293438  0.05005131    -0.59900
H674        H  0.41275761  0.86863334  0.04442650     0.14600
H675        H  0.44875648  0.77912455  0.06606056     0.46400
H676        H  0.39442590  0.80438015  0.90479782     0.41800
H677        H  0.36416280  0.88022025  0.03075568     0.45300
H678        H  0.44643058  0.85360615  0.90198885     0.36700
C679        C  0.68055285  0.97106375  0.03320401    -0.27500
C680        C  0.70653217  0.98424465  0.00667652     0.02100
C681        C  0.71566768  0.96646050  0.98358965     0.30200
C682        C  0.69798407  0.93574393  0.98543111    -0.19300
C683        C  0.67096256  0.92260528  0.00954455    -0.28700
C684        C  0.66286985  0.94060848  0.03488921     0.44200
C685        C  0.72195279  0.01642738  0.00005335     0.05400
O686        O  0.74111183  0.97885057  0.95757972    -0.57200
H687        H  0.70461322  0.92229221  0.96590423     0.18300
O688        O  0.63718220  0.92869716  0.06026555    -0.63900
H689        H  0.67346544  0.98456425  0.05146074     0.16800
C690        C  0.70815870  0.02917003  0.97466351     0.29000
C691        C  0.72074841  0.05963041  0.97315710    -0.24800
C692        C  0.74717606  0.07801719  0.99695730    -0.24100
C693        C  0.76159175  0.06526562  0.02103129     0.40500
C694        C  0.74894273  0.03459647  0.02235207    -0.26600
O695        O  0.68224391  0.01188711  0.95120248    -0.58500
H696        H  0.70949458  0.06888591  0.95378924     0.16100
O697        O  0.78735481  0.08239905  0.04491311    -0.59900
H698        H  0.75963416  0.02495795  0.04224945     0.14600
H699        H  0.64188267  0.92354046  0.09174741     0.46400
H700        H  0.66672426  0.01034482  0.97298037     0.41800
H701        H  0.78145579  0.08595823  0.07662907     0.45300
H702        H  0.73598483  0.98399491  0.92644075     0.36700
C703        C  0.96963733  0.28718360  0.04297853    -0.27500
C704        C  0.98347411  0.27840883  0.00953457     0.02100
C705        C  0.96622386  0.25511207  0.97831648     0.30200
C706        C  0.93553376  0.24195851  0.97925760    -0.19300
C707        C  0.92186971  0.25216494  0.01068214    -0.28700
C708        C  0.93914471  0.27420466  0.04386094     0.44200
C709        C  0.01575632  0.29606534  0.00440581     0.05400
O710        O  0.97916713  0.24598820  0.94539309    -0.57200
H711        H  0.92253625  0.22488206  0.95376687     0.18300
O712        O  0.92646017  0.28378064  0.07655335    -0.63900
H713        H  0.98265903  0.30488120  0.06752496     0.16800
C714        C  0.02872168  0.32558975  0.99050354     0.29000
C715        C  0.05914914  0.34303220  0.98844438    -0.24800
C716        C  0.07756435  0.33176809  0.00054411    -0.24100
C717        C  0.06448565  0.30177676  0.01297773     0.40500
C718        C  0.03374441  0.28414180  0.01467727    -0.26600
O719        O  0.01168763  0.33744906  0.97784979    -0.58500
H720        H  0.06827731  0.36570045  0.97752419     0.16100
O721        O  0.08134765  0.28953839  0.02422013    -0.59900
H722        H  0.02394137  0.26133470  0.02516495     0.14600
H723        H  0.91893474  0.26872963  0.10209225     0.46400
H724        H  0.01202137  0.34912208  0.00578769     0.41800
H725        H  0.08555416  0.29332740  0.05872595     0.45300
H726        H  0.98499254  0.26021573  0.91874849     0.36700
C727        C  0.61399542  0.17710966  0.04345255    -0.27500
C728        C  0.59603600  0.16368048  0.00377398     0.02100
C729        C  0.60648790  0.15336702  0.96666362     0.30200
C730        C  0.63507202  0.15786765  0.96855658    -0.19300
C731        C  0.65367373  0.17305116  0.00682308    -0.28700
C732        C  0.64262767  0.18189612  0.04506395     0.44200
C733        C  0.56861992  0.16479820  0.99845191     0.05400
O734        O  0.58947357  0.14025422  0.92733755    -0.57200
H735        H  0.64323161  0.15096628  0.93890031     0.18300
O736        O  0.66005936  0.19621092  0.08343420    -0.63900
H737        H  0.60634500  0.18533965  0.07210717     0.16800
C738        C  0.54481976  0.15001937  0.03001967     0.29000
C739        C  0.52085703  0.15476173  0.02745115    -0.24800
C740        C  0.52083765  0.17491725  0.99459235    -0.24100
C741        C  0.54424802  0.18883966  0.96207696     0.40500
C742        C  0.56773980  0.18362804  0.96403346    -0.26600
O743        O  0.54492025  0.13109702  0.06351815    -0.58500
H744        H  0.50299746  0.14378861  0.05262683     0.16100
O745        O  0.54473784  0.20821533  0.92889812    -0.59900
H746        H  0.58597583  0.19528838  0.93974033     0.14600
H747        H  0.65736899  0.18043868  0.10575162     0.46400
H748        H  0.55075471  0.14237511  0.09371027     0.41800
H749        H  0.53344953  0.19592427  0.90140691     0.45300
H750        H  0.57757862  0.11916309  0.93568290     0.36700
C751        C  0.96944602  0.68073592  0.96008784    -0.27500
C752        C  0.98369413  0.70457363  0.99130400     0.02100
C753        C  0.96676666  0.71168791  0.02138317     0.30200
C754        C  0.93599354  0.69427319  0.02114692    -0.19300
C755        C  0.92194650  0.66933029  0.99190506    -0.28700
C756        C  0.93896219  0.66315500  0.96031481     0.44200
C757        C  0.01608198  0.71930943  0.99551552     0.05400
O758        O  0.98013136  0.73467615  0.05266339    -0.57200
H759        H  0.92325996  0.69930981  0.04565178     0.18300
O760        O  0.92603510  0.63935346  0.93045526    -0.63900
H761        H  0.98216381  0.67508923  0.93656672     0.16800
C762        C  0.02907137  0.70288070  0.00983856     0.29000
C763        C  0.05950716  0.71585584  0.01128589    -0.24800
C764        C  0.07797037  0.74531482  0.99771602    -0.24100
C765        C  0.06492351  0.76199431  0.98384120     0.40500
C766        C  0.03415758  0.74899010  0.98321435    -0.26600
O767        O  0.01204337  0.67408503  0.02341437    -0.58500
H768        H  0.06860369  0.70244916  0.02289467     0.16100
O769        O  0.08181981  0.79070348  0.96995074    -0.59900
H770        H  0.02438826  0.76182894  0.97181592     0.14600
H771        H  0.92108880  0.64653517  0.90121603     0.46400
H772        H  0.01296433  0.66239788  0.99648406     0.41800
H773        H  0.08655593  0.78987344  0.93601078     0.51600
H774        H  0.98126740  0.72578219  0.08316338     0.36700
C775        C  0.70751513  0.67727280  0.02447209    -0.27500
C776        C  0.71939392  0.70224818  0.99533081     0.02100
C777        C  0.74525139  0.71015521  0.96959608     0.30200
C778        C  0.75820381  0.69242580  0.97192046    -0.19300
C779        C  0.74538394  0.66659452  0.99940678    -0.28700
C780        C  0.72028678  0.65962041  0.02681410     0.44200
C781        C  0.70308861  0.71829818  0.99016237     0.05400
O782        O  0.75743374  0.73455108  0.94097360    -0.57200
H783        H  0.77756134  0.69822803  0.95080647     0.18300
O784        O  0.70779032  0.63530421  0.05568558    -0.63900
H785        H  0.68785117  0.67114656  0.04496348     0.16800
C786        C  0.67456777  0.70376474  0.97127275     0.29000
C787        C  0.65752066  0.71724581  0.97199952    -0.24800
C788        C  0.66830232  0.74540692  0.99157043    -0.24100
C789        C  0.69753579  0.76065589  0.00822224     0.40500
C790        C  0.71468739  0.74703189  0.00747245    -0.26600
O791        O  0.66323651  0.67630916  0.95172537    -0.58500
H792        H  0.63548784  0.70529635  0.95768376     0.16100
O793        O  0.70927524  0.78839813  0.02664457    -0.59900
H794        H  0.73667498  0.75848992  0.02201222     0.14600
H795        H  0.71827733  0.64197712  0.08650157     0.46400
H796        H  0.64971357  0.66257191  0.97613510     0.41800
H797        H  0.70466332  0.78554588  0.06114911     0.45300
H798        H  0.74731985  0.72774399  0.90988885     0.36700
C799        C  0.81811740  0.43308197  0.96444857    -0.27500
C800        C  0.83555645  0.43144911  0.00056518     0.02100
C801        C  0.85072219  0.45530688  0.03174742     0.30200
C802        C  0.84734468  0.48004286  0.02765408    -0.19300
C803        C  0.82817388  0.48071279  0.99355338    -0.28700
C804        C  0.81433331  0.45743220  0.96081661     0.44200
C805        C  0.83399261  0.40304307  0.00911372     0.05400
O806        O  0.86763809  0.45397880  0.06768441    -0.57200
H807        H  0.85803959  0.49771853  0.05320879     0.18300
O808        O  0.79594859  0.45769077  0.92648861    -0.63900
H809        H  0.80622750  0.41472533  0.94045834     0.16800
C810        C  0.81017319  0.38110206  0.03467226     0.29000
C811        C  0.80610238  0.35282760  0.03738334    -0.24800
C812        C  0.82525906  0.34565361  0.01399948    -0.24100
C813        C  0.84992123  0.36806232  0.99005997     0.40500
C814        C  0.85405307  0.39654970  0.98757055    -0.26600
O815        O  0.79014522  0.38690053  0.05575998    -0.58500
H816        H  0.78717154  0.33614472  0.05643118     0.16100
O817        O  0.86872301  0.36188331  0.96578258    -0.59900
H818        H  0.87222788  0.41325368  0.96718902     0.14600
H819        H  0.80847293  0.46637825  0.89796876     0.46400
H820        H  0.77458055  0.38162712  0.03156524     0.41800
H821        H  0.88604014  0.36866507  0.98681685     0.45300
H822        H  0.85421667  0.44549292  0.09528517     0.36700
C823        C  0.60382695  0.45568950  0.01778840    -0.27500
C824        C  0.59791256  0.42834186  0.00033143     0.02100
C825        C  0.62024130  0.42563537  0.97793279     0.30200
C826        C  0.64850148  0.44973987  0.97528440    -0.19300
C827        C  0.65515929  0.47691323  0.99500270    -0.28700
C828        C  0.63227163  0.48004405  0.01496513     0.44200
C829        C  0.56936808  0.40179434  0.00881429     0.05400
O830        O  0.61459495  0.39927950  0.95899319    -0.57200
H831        H  0.66545051  0.44688881  0.95864171     0.18300
O832        O  0.63774959  0.50614137  0.03451761    -0.63900
H833        H  0.58666886  0.45787245  0.03515302     0.16800
C834        C  0.56768769  0.38039260  0.04062112     0.29000
C835        C  0.54297889  0.35249233  0.04081352    -0.24800
C836        C  0.51945188  0.34556937  0.00996946    -0.24100
C837        C  0.51991757  0.36785838  0.98144307     0.40500
C838        C  0.54504542  0.39581824  0.98063863    -0.26600
O839        O  0.59103174  0.38593048  0.06914681    -0.58500
H840        H  0.54274158  0.33580894  0.06375695     0.16100
O841        O  0.49723095  0.36185853  0.95109433    -0.59900
H842        H  0.54620769  0.41224372  0.95606398     0.14600
H843        H  0.63289450  0.51610759  0.00911786     0.46400
H844        H  0.58929249  0.39633324  0.09726555     0.41800
H845        H  0.48492620  0.36818682  0.96832792     0.45300
H846        H  0.62226290  0.39078407  0.98260257     0.36700
C847        C  0.44836553  0.39129946  0.25615108    -0.27500
C848        C  0.45643313  0.36967315  0.25805643     0.02100
C849        C  0.47337995  0.36944096  0.29672034     0.30200
C850        C  0.48119051  0.39002979  0.33345950    -0.19300
C851        C  0.47270086  0.41135175  0.33203321    -0.28700
C852        C  0.45628118  0.41194952  0.29278533     0.44200
C853        C  0.44703482  0.34730528  0.21981676     0.05400
O854        O  0.48343979  0.34993126  0.29773417    -0.57200
H855        H  0.49421980  0.38951831  0.36289754     0.18300
O856        O  0.44711862  0.43209313  0.29049796    -0.63900
H857        H  0.43536554  0.39178589  0.22664282     0.16800
C858        C  0.43141448  0.31716992  0.23085336     0.29000
C859        C  0.42535807  0.29635546  0.19529546    -0.24800
C860        C  0.43395143  0.30493655  0.14788413    -0.24100
C861        C  0.44804411  0.33511180  0.13629487     0.40500
C862        C  0.45439822  0.35599452  0.17217002    -0.26600
O863        O  0.42221768  0.30779899  0.27650251    -0.58500
H864        H  0.41402472  0.27333917  0.20502198     0.16100
O865        O  0.45672619  0.34457581  0.09049778    -0.59900
H866        H  0.46609054  0.37910154  0.16302063     0.14600
H867        H  0.42879280  0.42347310  0.30948310     0.46400
H868        H  0.40382133  0.30840280  0.28022687     0.41800
H869        H  0.47693602  0.34790298  0.08802043     0.45300
H870        H  0.47301440  0.33641579  0.32458623     0.36700
C871        C  0.42185213  0.31062892  0.75939695    -0.27500
C872        C  0.44123704  0.34054976  0.76783889     0.02100
C873        C  0.45315341  0.34976502  0.81368424     0.30200
C874        C  0.44645545  0.32909495  0.84977451    -0.19300
C875        C  0.42840949  0.29901235  0.84070561    -0.28700
C876        C  0.41537369  0.28989553  0.79544897     0.44200
C877        C  0.44968620  0.36204514  0.72858339     0.05400
O878        O  0.47230491  0.37882653  0.82307910    -0.57200
H879        H  0.45659546  0.33653492  0.88431633     0.18300
O880        O  0.39655578  0.26079088  0.78590301    -0.63900
H881        H  0.41195929  0.30331500  0.72461318     0.16800
C882        C  0.46233272  0.35894582  0.68640373     0.29000
C883        C  0.47195576  0.38061332  0.65110217    -0.24800
C884        C  0.46917556  0.40556575  0.65723349    -0.24100
C885        C  0.45587533  0.40824772  0.69915806     0.40500
C886        C  0.44631667  0.38661515  0.73430291    -0.26600
O887        O  0.46672697  0.33557940  0.68046433    -0.58500
H888        H  0.48203510  0.37809147  0.61919610     0.16100
O889        O  0.45180242  0.43175335  0.70607792    -0.59900
H890        H  0.43625460  0.38906082  0.76630396     0.14600
H891        H  0.37739291  0.25656003  0.79917556     0.46400
H892        H  0.45095880  0.32203301  0.65858662     0.41800
H893        H  0.43223274  0.42569802  0.69240649     0.45300
H894        H  0.49189608  0.38205185  0.81408990     0.36700
C895        C  0.60925807  0.55444296  0.25544514    -0.27500
C896        C  0.63426535  0.55177530  0.26147179     0.02100
C897        C  0.63844712  0.54121709  0.30524255     0.30200
C898        C  0.61792570  0.53351552  0.34189985    -0.19300
C899        C  0.59267840  0.53570538  0.33570981    -0.28700
C900        C  0.58858760  0.54656170  0.29207453     0.44200
C901        C  0.65583273  0.55961726  0.22214039     0.05400
O902        O  0.66235269  0.53787980  0.31236033    -0.57200
H903        H  0.62152364  0.52520563  0.37500616     0.18300
O904        O  0.56473759  0.55001596  0.28502098    -0.63900
H905        H  0.60590798  0.56301460  0.22243588     0.16800
C906        C  0.64704442  0.54732084  0.17636183     0.29000
C907        C  0.66818778  0.55241528  0.14164362    -0.24800
C908        C  0.69825129  0.56950176  0.15181060    -0.24100
C909        C  0.70693187  0.58296052  0.19687505     0.40500
C910        C  0.68582032  0.57815980  0.23133903    -0.26600
O911        O  0.61801229  0.52861537  0.16626882    -0.58500
H912        H  0.66103256  0.54190476  0.10730502     0.16100
O913        O  0.73600420  0.60043159  0.20802820    -0.59900
H914        H  0.69296844  0.58839405  0.26594345     0.14600
H915        H  0.57044863  0.56959295  0.29837357     0.46400
H916        H  0.61196284  0.54013950  0.14611484     0.41800
H917        H  0.74119375  0.62036659  0.19704602     0.45300
H918        H  0.65643007  0.51798577  0.30023441     0.36700
C919        C  0.65131611  0.55845205  0.81845352    -0.27500
C920        C  0.65702761  0.55426630  0.77119739     0.02100
C921        C  0.68445036  0.55750429  0.75964234     0.30200
C922        C  0.70537062  0.56409725  0.79515981    -0.19300
C923        C  0.69949813  0.56734519  0.84300885    -0.28700
C924        C  0.67222878  0.56498483  0.85423857     0.44200
C925        C  0.63422142  0.54602408  0.73412668     0.05400
O926        O  0.69076701  0.55344715  0.71384691    -0.57200
H927        H  0.72600605  0.56581597  0.78508964     0.18300
O928        O  0.66531729  0.56813360  0.90011401    -0.63900
H929        H  0.63045932  0.55648796  0.82772179     0.16800
C930        C  0.60626947  0.52093716  0.73922073     0.29000
C931        C  0.58550333  0.51294398  0.70269603    -0.24800
C932        C  0.59238013  0.52952341  0.66058926    -0.24100
C933        C  0.62030752  0.55474820  0.65581667     0.40500
C934        C  0.64086616  0.56284045  0.69242328    -0.26600
O935        O  0.59964396  0.50329929  0.77863285    -0.58500
H936        H  0.56420798  0.49341693  0.70688916     0.16100
O937        O  0.62769084  0.57187724  0.61567940    -0.59900
H938        H  0.66216511  0.58235922  0.68820713     0.14600
H939        H  0.67005373  0.58884658  0.90252970     0.46400
H940        H  0.58686430  0.50782078  0.79850554     0.41800
H941        H  0.61994471  0.58535549  0.62102844     0.45300
H942        H  0.68274270  0.53199681  0.71073227     0.36700
C943        C  0.54294571  0.67825836  0.23467621    -0.27500
C944        C  0.55428133  0.65939240  0.23040634     0.02100
C945        C  0.57026730  0.66070346  0.18945596     0.30200
C946        C  0.57445570  0.68063267  0.15302896    -0.19300
C947        C  0.56314985  0.69967183  0.15728637    -0.28700
C948        C  0.54714165  0.69819831  0.19862290     0.44200
C949        C  0.54761901  0.63734611  0.26791901     0.05400
O950        O  0.58192874  0.64268149  0.18487568    -0.57200
H951        H  0.58693405  0.68150590  0.12180315     0.18300
O952        O  0.53499753  0.71576765  0.20392902    -0.63900
H953        H  0.53017495  0.67705280  0.26572393     0.16800
C954        C  0.55652648  0.64586854  0.31521278     0.29000
C955        C  0.54780656  0.62459617  0.35095967    -0.24800
C956        C  0.52984081  0.59464271  0.34032564    -0.24100
C957        C  0.52088231  0.58627220  0.29261449     0.40500
C958        C  0.53002775  0.60756913  0.25693727    -0.26600
O959        O  0.57434499  0.67490854  0.32651077    -0.58500
H960        H  0.55530061  0.63163050  0.38703842     0.16100
O961        O  0.50287331  0.55742957  0.28033248    -0.59900
H962        H  0.52262241  0.60087809  0.22069835     0.14600
H963        H  0.51484501  0.70417584  0.19098690     0.46400
H964        H  0.56120524  0.68119870  0.34091202     0.41800
H965        H  0.48265213  0.55377268  0.28483104     0.45300
H966        H  0.60167409  0.65365867  0.19951362     0.36700
C967        C  0.52514939  0.63034569  0.70311755    -0.27500
C968        C  0.54297178  0.63027691  0.74026598     0.02100
C969        C  0.55080944  0.60834429  0.74121319     0.30200
C970        C  0.54141076  0.58740704  0.70481803    -0.19300
C971        C  0.52453738  0.58821801  0.66670031    -0.28700
C972        C  0.51606936  0.60966998  0.66644359     0.44200
C973        C  0.55324390  0.65333836  0.77744898     0.05400
O974        O  0.56821984  0.60760628  0.77686139    -0.57200
H975        H  0.54820211  0.57109410  0.70556574     0.18300
O976        O  0.49888148  0.61061138  0.63060191    -0.63900
H977        H  0.51824903  0.64656250  0.70251296     0.16800
C978        C  0.56725458  0.68321524  0.76480792     0.29000
C979        C  0.57456939  0.70462048  0.79991597    -0.24800
C980        C  0.56810514  0.69682670  0.84814391    -0.24100
C981        C  0.55512875  0.66687827  0.86093219     0.40500
C982        C  0.54788279  0.64549619  0.82569642    -0.26600
O983        O  0.57440432  0.69169960  0.71821077    -0.58500
H984        H  0.58496850  0.72742081  0.78910198     0.16100
O985        O  0.54846661  0.65804790  0.90746419    -0.59900
H986        H  0.53702320  0.62258543  0.83599503     0.14600
H987        H  0.47842799  0.59683831  0.64061092     0.46400
H988        H  0.56059447  0.69818820  0.70765094     0.41800
H989        H  0.52772087  0.65284150  0.91157193     0.45300
H990        H  0.58859705  0.61979141  0.76510538     0.36700
C991        C  0.35480588  0.46795158  0.17817808    -0.27500
C992        C  0.34678377  0.45369192  0.22254479     0.02100
C993        C  0.31757614  0.43112902  0.22983845     0.30200
C994        C  0.29684994  0.42388633  0.19382140    -0.19300
C995        C  0.30489839  0.43821313  0.14969488    -0.28700
C996        C  0.33423354  0.45999120  0.14156665     0.44200
C997        C  0.36881814  0.46255724  0.26111121     0.05400
O998        O  0.30894095  0.41613317  0.27216064    -0.57200
H999        H  0.27432634  0.40705679  0.20043634     0.18300
O1000       O  0.34251574  0.47508118  0.09927473    -0.63900
H1001       H  0.37691826  0.48580231  0.17215757     0.16800
C1002       C  0.39655962  0.46572312  0.25255129     0.29000
C1003       C  0.41650888  0.47302748  0.28992837    -0.24800
C1004       C  0.40906931  0.47642848  0.33662678    -0.24100
C1005       C  0.38152014  0.47399638  0.34487542     0.40500
C1006       C  0.36188050  0.46746373  0.30721364    -0.26600
O1007       O  0.40373340  0.46002364  0.20841476    -0.58500
H1008       H  0.43768258  0.47535792  0.28226798     0.16100
O1009       O  0.37338947  0.47781055  0.38949704    -0.59900
H1010       H  0.34098442  0.46600816  0.31421643     0.14600
H1011       H  0.35238135  0.46632023  0.08115490     0.46400
H1012       H  0.41888389  0.47934159  0.19575952     0.41800
H1013       H  0.38016573  0.49906370  0.39175095     0.45300
H1014       H  0.31527112  0.40131904  0.27036989     0.36700
C1015       C  0.34627692  0.43598475  0.81830651    -0.27500
C1016       C  0.34265851  0.44389965  0.77214381     0.02100
C1017       C  0.31755230  0.44576746  0.76157277     0.30200
C1018       C  0.29674031  0.44006988  0.79683803    -0.19300
C1019       C  0.30056961  0.43290261  0.84354356    -0.28700
C1020       C  0.32556497  0.43055580  0.85392890     0.44200
C1021       C  0.36524888  0.45072648  0.73520115     0.05400
O1022       O  0.31349217  0.45391784  0.71707226    -0.57200
H1023       H  0.27794008  0.44220805  0.78764445     0.18300
O1024       O  0.33029842  0.42343071  0.89877196    -0.63900
H1025       H  0.36525469  0.43400824  0.82681832     0.16800
C1026       C  0.39486467  0.47182742  0.74315362     0.29000
C1027       C  0.41533605  0.47947590  0.70632836    -0.24800
C1028       C  0.40669832  0.46652827  0.66111173    -0.24100
C1029       C  0.37709025  0.44500368  0.65355243     0.40500
C1030       C  0.35680847  0.43703112  0.69060412    -0.26600
O1031       O  0.40367209  0.48628867  0.78588411    -0.58500
H1032       H  0.43791147  0.49614896  0.71288433     0.16100
O1033       O  0.36784108  0.43100472  0.61051795    -0.59900
H1034       H  0.33422212  0.42030734  0.68424251     0.14600
H1035       H  0.32245593  0.40193248  0.89802343     0.46400
H1036       H  0.41422965  0.47765155  0.80234163     0.41800
H1037       H  0.35800007  0.44052174  0.59445683     0.45300
H1038       H  0.32195457  0.47548695  0.71875602     0.36700
C1039       C  0.87714552  0.56024477  0.23959824    -0.27500
C1040       C  0.90233426  0.55921562  0.22730759     0.02100
C1041       C  0.91209907  0.56445696  0.17973809     0.30200
C1042       C  0.89623258  0.56986320  0.14506884    -0.19300
C1043       C  0.87057421  0.57040685  0.15713354    -0.28700
C1044       C  0.86152775  0.56608644  0.20543649     0.44200
C1045       C  0.91749815  0.55169914  0.26440255     0.05400
O1046       O  0.93696163  0.56406007  0.16667405    -0.57200
H1047       H  0.90387482  0.57321999  0.10855850     0.18300
O1048       O  0.83682205  0.56640737  0.21978850    -0.63900
H1049       H  0.86910623  0.55587883  0.27590284     0.16800
C1050       C  0.92609060  0.56718554  0.30774528     0.29000
C1051       C  0.93847196  0.55843218  0.34368676    -0.24800
C1052       C  0.94246510  0.53421983  0.33725660    -0.24100
C1053       C  0.93426344  0.51898549  0.29355904     0.40500
C1054       C  0.92189047  0.52777931  0.25758973    -0.26600
O1055       O  0.92323050  0.59142989  0.31466637    -0.58500
H1056       H  0.94508832  0.57074319  0.37667656     0.16100
O1057       O  0.93762050  0.49509365  0.28601945    -0.59900
H1058       H  0.91499926  0.51538767  0.22470256     0.14600
H1059       H  0.84370494  0.58704941  0.22890564     0.46400
H1060       H  0.90702010  0.58525184  0.33792252     0.41800
H1061       H  0.91798634  0.47774801  0.29175127     0.45300
H1062       H  0.95341653  0.58383339  0.17478083     0.36700
C1063       C  0.94531916  0.55580190  0.74179943    -0.27500
C1064       C  0.91726189  0.55224765  0.73689642     0.02100
C1065       C  0.90150595  0.54035788  0.69438597     0.30200
C1066       C  0.91401745  0.53264206  0.65731788    -0.19300
C1067       C  0.94185900  0.53565862  0.66253915    -0.28700
C1068       C  0.95747673  0.54723570  0.70532635     0.44200
C1069       C  0.90415803  0.56032734  0.77646528     0.05400
O1070       O  0.87356837  0.53556277  0.68916915    -0.57200
H1071       H  0.90154719  0.52346018  0.62494447     0.18300
O1072       O  0.98502062  0.55112970  0.71129245    -0.63900
H1073       H  0.95784085  0.56522097  0.77403609     0.16800
C1074       C  0.90110914  0.54808637  0.82217954     0.29000
C1075       C  0.88575775  0.55353140  0.85756421    -0.24800
C1076       C  0.87318302  0.57100962  0.84792182    -0.24100
C1077       C  0.87760065  0.58447942  0.80291004     0.40500
C1078       C  0.89304667  0.57914599  0.76769268    -0.26600
O1079       O  0.91110025  0.52903207  0.83149226    -0.58500
H1080       H  0.88245743  0.54287315  0.89187252     0.16100
O1081       O  0.86634984  0.60235493  0.79255044    -0.59900
H1082       H  0.89574930  0.58916862  0.73295102     0.14600
H1083       H  0.98204276  0.53366630  0.72940898     0.46400
H1084       H  0.92941645  0.54058943  0.84997202     0.41800
H1085       H  0.88067323  0.62181176  0.80580725     0.45300
H1086       H  0.86064142  0.51582096  0.70292598     0.36700
C1087       C  0.88056487  0.31397543  0.24079619    -0.27500
C1088       C  0.89146237  0.34374162  0.23074532     0.02100
C1089       C  0.89002618  0.35249195  0.18386079     0.30200
C1090       C  0.87716541  0.33143667  0.14803585    -0.19300
C1091       C  0.86533408  0.30153768  0.15849781    -0.28700
C1092       C  0.86760479  0.29291927  0.20508063     0.44200
C1093       C  0.90489039  0.36556344  0.26917660     0.05400
O1094       O  0.90059059  0.38148638  0.17292550    -0.57200
H1095       H  0.87545749  0.33841240  0.11243245     0.18300
O1096       O  0.85721807  0.26396436  0.21606559    -0.63900
H1097       H  0.88229408  0.30705684  0.27640729     0.16800
C1098       C  0.88966215  0.36295139  0.31175690     0.29000
C1099       C  0.90306452  0.38397985  0.34758711    -0.24800
C1100       C  0.93160491  0.40778342  0.34148761    -0.24100
C1101       C  0.94684690  0.41010009  0.29888343     0.40500
C1102       C  0.93344281  0.38910212  0.26326219    -0.26600
O1103       O  0.86130122  0.34063072  0.31777908    -0.58500
H1104       H  0.89095444  0.38182101  0.37995834     0.16100
O1105       O  0.97504672  0.43250140  0.29184518    -0.59900
H1106       H  0.94556862  0.39101233  0.23101757     0.14600
H1107       H  0.87385292  0.26064046  0.20992851     0.46400
H1108       H  0.86250494  0.32664229  0.34004562     0.41800
H1109       H  0.98768597  0.42550530  0.30601795     0.45300
H1110       H  0.88453300  0.38533125  0.18119245     0.36700
C1111       C  0.89067075  0.31533669  0.76932837    -0.27500
C1112       C  0.90231313  0.34518049  0.77994497     0.02100
C1113       C  0.90080180  0.35353293  0.82700904     0.30200
C1114       C  0.88670855  0.33204969  0.86213189    -0.19300
C1115       C  0.87366386  0.30210532  0.85102568    -0.28700
C1116       C  0.87659685  0.29387615  0.80444167     0.44200
C1117       C  0.91437279  0.36711018  0.74100793     0.05400
O1118       O  0.91082916  0.38240933  0.83806926    -0.57200
H1119       H  0.88458616  0.33882550  0.89755122     0.18300
O1120       O  0.86524207  0.26491576  0.79253816    -0.63900
H1121       H  0.89205518  0.30863567  0.73339704     0.16800
C1122       C  0.94312633  0.39118078  0.74291930     0.29000
C1123       C  0.95370698  0.41168439  0.70583665    -0.24800
C1124       C  0.93615352  0.40833080  0.66595750    -0.24100
C1125       C  0.90740531  0.38421366  0.66402618     0.40500
C1126       C  0.89677278  0.36380318  0.70128897    -0.26600
O1127       O  0.96124656  0.39458464  0.78040440    -0.58500
H1128       H  0.97601556  0.42989413  0.70774154     0.16100
O1129       O  0.88937586  0.38058616  0.62627903    -0.59900
H1130       H  0.87454338  0.34546415  0.69946290     0.14600
H1131       H  0.88083130  0.26034096  0.80062005     0.46400
H1132       H  0.97056013  0.38286370  0.77188033     0.41800
H1133       H  0.88027310  0.39259826  0.63412425     0.45300
H1134       H  0.92813405  0.38837449  0.85883440     0.36700
C1135       C  0.12779685  0.44801930  0.23796902    -0.27500
C1136       C  0.09868291  0.44041896  0.22971077     0.02100
C1137       C  0.08568197  0.42823412  0.18549431     0.30200
C1138       C  0.10196632  0.42389402  0.15018818    -0.19300
C1139       C  0.13126768  0.43150272  0.15848080    -0.28700
C1140       C  0.14412721  0.44391709  0.20294753     0.44200
C1141       C  0.08299603  0.44695404  0.26701852     0.05400
O1142       O  0.05715780  0.42057579  0.17646755    -0.57200
H1143       H  0.09161472  0.41448064  0.11639180     0.18300
O1144       O  0.17295936  0.45296851  0.21235791    -0.63900
H1145       H  0.13826122  0.45804150  0.27142787     0.16800
C1146       C  0.07978694  0.43535288  0.31321461     0.29000
C1147       C  0.06744919  0.44402958  0.34932111    -0.24800
C1148       C  0.05844674  0.46459971  0.34031365    -0.24100
C1149       C  0.06178906  0.47622946  0.29381073     0.40500
C1150       C  0.07374996  0.46718826  0.25764539    -0.26600
O1151       O  0.08813336  0.41505425  0.32305302    -0.58500
H1152       H  0.06486100  0.43450936  0.38445550     0.16100
O1153       O  0.05402122  0.49687672  0.28333924    -0.59900
H1154       H  0.07670630  0.47674346  0.22245634     0.14600
H1155       H  0.18395027  0.47392557  0.20282147     0.46400
H1156       H  0.10675330  0.42588753  0.34105509     0.41800
H1157       H  0.07107003  0.51591671  0.29301577     0.45300
H1158       H  0.04526308  0.40012511  0.18818362     0.36700
C1159       C  0.12612124  0.45447876  0.77324838    -0.27500
C1160       C  0.09614545  0.44322791  0.78086837     0.02100
C1161       C  0.08319896  0.42825227  0.82347590     0.30200
C1162       C  0.10040307  0.42457655  0.85784561    -0.19300
C1163       C  0.13049401  0.43565251  0.85001206    -0.28700
C1164       C  0.14330787  0.45096226  0.80731201     0.44200
C1165       C  0.07908831  0.44755242  0.74341470     0.05400
O1166       O  0.05361411  0.41600505  0.83071035    -0.57200
H1167       H  0.09008640  0.41257191  0.89017543     0.18300
O1168       O  0.17269523  0.46282868  0.79845226    -0.63900
H1169       H  0.13631391  0.46629071  0.74069844     0.16800
C1170       C  0.06675762  0.46543930  0.75122119     0.29000
C1171       C  0.05415506  0.47240447  0.71329256    -0.24800
C1172       C  0.05374449  0.46185171  0.66703377    -0.24100
C1173       C  0.06513865  0.44290152  0.65993421     0.40500
C1174       C  0.07791870  0.43619395  0.69786577    -0.26600
O1175       O  0.06785294  0.47707731  0.79536313    -0.58500
H1176       H  0.04542044  0.48680736  0.72003362     0.16100
O1177       O  0.06435080  0.43108773  0.61608049    -0.59900
H1178       H  0.08740961  0.42239128  0.69157698     0.14600
H1179       H  0.18228111  0.48220165  0.81453017     0.46400
H1180       H  0.08683018  0.49577515  0.79627509     0.41800
H1181       H  0.04527046  0.41250504  0.61497881     0.45300
H1182       H  0.05155363  0.42908528  0.85381956     0.36700
C1183       C  0.11551409  0.68187853  0.23443254    -0.27500
C1184       C  0.10866758  0.65282479  0.22606549     0.02100
C1185       C  0.11402095  0.64517802  0.18052023     0.30200
C1186       C  0.12600903  0.66637100  0.14446535    -0.19300
C1187       C  0.13367006  0.69555856  0.15342930    -0.28700
C1188       C  0.12819381  0.70320685  0.19878480     0.44200
C1189       C  0.09536147  0.63061729  0.26469082     0.05400
O1190       O  0.10835636  0.61724143  0.17124314    -0.57200
H1191       H  0.13060327  0.66025456  0.11005330     0.18300
O1192       O  0.13535876  0.73153110  0.20877337    -0.63900
H1193       H  0.11095217  0.68809044  0.26874480     0.16800
C1194       C  0.10751349  0.63607745  0.31083819     0.29000
C1195       C  0.09385674  0.61511775  0.34693601    -0.24800
C1196       C  0.06797263  0.58842220  0.33802523    -0.24100
C1197       C  0.05610754  0.58290469  0.29144334     0.40500
C1198       C  0.06972815  0.60389868  0.25557153    -0.26600
O1199       O  0.13331910  0.66138206  0.32053915    -0.58500
H1200       H  0.10369066  0.61985622  0.38204405     0.16100
O1201       O  0.03098583  0.55725606  0.28039018    -0.59900
H1202       H  0.05979399  0.59945960  0.22054567     0.14600
H1203       H  0.11839898  0.73319547  0.19763244     0.46400
H1204       H  0.12789180  0.67312490  0.34134735     0.41800
H1205       H  0.01473569  0.56114794  0.28674144     0.45300
H1206       H  0.12719314  0.61777829  0.17683479     0.36700
C1207       C  0.12675151  0.67924703  0.76254585    -0.27500
C1208       C  0.09831035  0.65659080  0.77238000     0.02100
C1209       C  0.08634108  0.65475710  0.81797638     0.30200
C1210       C  0.10294178  0.67548148  0.85293625    -0.19300
C1211       C  0.13154847  0.69829472  0.84305226    -0.28700
C1212       C  0.14334963  0.69987989  0.79711998     0.44200
C1213       C  0.08259356  0.63398864  0.73554243     0.05400
O1214       O  0.05859913  0.63265338  0.82886176    -0.57200
H1215       H  0.09339008  0.67363836  0.88781681     0.18300
O1216       O  0.17143898  0.72098828  0.78568740    -0.63900
H1217       H  0.13665800  0.68042180  0.72821150     0.16800
C1218       C  0.08020726  0.64189980  0.68851477     0.29000
C1219       C  0.06836359  0.62044610  0.65302458    -0.24800
C1220       C  0.05908357  0.59097015  0.66345562    -0.24100
C1221       C  0.06105144  0.58303716  0.71082413     0.40500
C1222       C  0.07273231  0.60449928  0.74629358    -0.26600
O1223       O  0.08903449  0.67051213  0.67714390    -0.58500
H1224       H  0.06656381  0.62700078  0.61716777     0.16100
O1225       O  0.05344672  0.55475711  0.72232194    -0.59900
H1226       H  0.07522081  0.59821965  0.78198816     0.14600
H1227       H  0.18345527  0.71155071  0.79074062     0.46400
H1228       H  0.10699359  0.67744738  0.65760989     0.41800
H1229       H  0.03443857  0.54656270  0.73924558     0.45300
H1230       H  0.04545006  0.64009099  0.81893139     0.36700
C1231       C  0.35017676  0.90576259  0.18212917    -0.27500
C1232       C  0.34686485  0.89201652  0.22636913     0.02100
C1233       C  0.32248117  0.86402694  0.23421074     0.30200
C1234       C  0.30140578  0.85059768  0.19870921    -0.19300
C1235       C  0.30439539  0.86430744  0.15431055    -0.28700
C1236       C  0.32942019  0.89201423  0.14599426     0.44200
C1237       C  0.36869163  0.90713009  0.26440615     0.05400
O1238       O  0.31920245  0.84944119  0.27631870    -0.57200
H1239       H  0.28288884  0.82900658  0.20591335     0.18300
O1240       O  0.33402699  0.90582557  0.10281039    -0.63900
H1241       H  0.36883729  0.92737119  0.17565483     0.16800
C1242       C  0.39872069  0.91793987  0.25632773     0.29000
C1243       C  0.41893607  0.93225169  0.29292567    -0.24800
C1244       C  0.40957723  0.93584469  0.33796554    -0.24100
C1245       C  0.37944472  0.92514693  0.34580727     0.40500
C1246       C  0.35932596  0.91090793  0.30920945    -0.26600
O1247       O  0.40829120  0.91334205  0.21351135    -0.58500
H1248       H  0.44192956  0.94005001  0.28626473     0.16100
O1249       O  0.36938812  0.92882143  0.38883182    -0.59900
H1250       H  0.33630341  0.90308208  0.31566618     0.14600
H1251       H  0.32506172  0.91840971  0.10577574     0.46400
H1252       H  0.41755276  0.93258534  0.19699960     0.41800
H1253       H  0.37075586  0.94827221  0.38677440     0.45300
H1254       H  0.32901992  0.83779212  0.27118658     0.36700
C1255       C  0.39156457  0.93930952  0.74111146    -0.27500
C1256       C  0.36866421  0.91024743  0.73572365     0.02100
C1257       C  0.36660471  0.89516433  0.69314882     0.30200
C1258       C  0.38692598  0.90924075  0.65662465    -0.19300
C1259       C  0.41002347  0.93817830  0.66214853    -0.28700
C1260       C  0.41218723  0.95328712  0.70479707     0.44200
C1261       C  0.34667773  0.89592620  0.77415084     0.05400
O1262       O  0.34503831  0.86647962  0.68710976    -0.57200
H1263       H  0.38501180  0.89721145  0.62426044     0.18300
O1264       O  0.43404328  0.98183851  0.71107308    -0.63900
H1265       H  0.39321556  0.95135980  0.77330990     0.16800
C1266       C  0.35516769  0.89431924  0.82111581     0.29000
C1267       C  0.33382175  0.87978792  0.85632727    -0.24800
C1268       C  0.30384221  0.86650255  0.84534914    -0.24100
C1269       C  0.29545588  0.86858253  0.79837791     0.40500
C1270       C  0.31677774  0.88327863  0.76343426    -0.26600
O1271       O  0.38416224  0.90529114  0.83219305    -0.58500
H1272       H  0.34075573  0.87800102  0.89189743     0.16100
O1273       O  0.26646827  0.85606276  0.78595841    -0.59900
H1274       H  0.30990804  0.88465822  0.72761268     0.14600
H1275       H  0.42576190  0.99395215  0.69938513     0.46400
H1276       H  0.38993603  0.92338891  0.85078815     0.41800
H1277       H  0.26077538  0.87077831  0.79463571     0.45300
H1278       H  0.35210308  0.85474626  0.70430294     0.36700
C1279       C  0.53089616  0.89653887  0.29961857    -0.27500
C1280       C  0.54369896  0.91302282  0.25818890     0.02100
C1281       C  0.54709240  0.94119878  0.25399933     0.30200
C1282       C  0.53807404  0.95255375  0.29104933    -0.19300
C1283       C  0.52630601  0.93653968  0.33328081    -0.28700
C1284       C  0.52249464  0.90815243  0.33715691     0.44200
C1285       C  0.55350139  0.90055055  0.21989729     0.05400
O1286       O  0.55987018  0.95812398  0.21439441    -0.57200
H1287       H  0.54121216  0.97440176  0.28726970     0.18300
O1288       O  0.51065261  0.89157471  0.37741332    -0.63900
H1289       H  0.52742727  0.87452683  0.30295944     0.16800
C1290       C  0.57151377  0.88860223  0.23034768     0.29000
C1291       C  0.57861513  0.87476180  0.19458335    -0.24800
C1292       C  0.56823726  0.87281035  0.14790938    -0.24100
C1293       C  0.55142926  0.88610528  0.13691555     0.40500
C1294       C  0.54396049  0.89956025  0.17290485    -0.26600
O1295       O  0.58273436  0.89089653  0.27527129    -0.58500
H1296       H  0.59198434  0.86515189  0.20359859     0.16100
O1297       O  0.54043799  0.88428919  0.09197680    -0.59900
H1298       H  0.52988064  0.90842429  0.16433743     0.14600
H1299       H  0.48944485  0.87907503  0.37049650     0.46400
H1300       H  0.57203449  0.87079289  0.28880015     0.41800
H1301       H  0.55438826  0.90308303  0.07631197     0.45300
H1302       H  0.58110340  0.96959187  0.22180321     0.36700
C1303       C  0.53553145  0.89634710  0.69046604    -0.27500
C1304       C  0.54946765  0.91275225  0.73135562     0.02100
C1305       C  0.55524747  0.94181127  0.73508167     0.30200
C1306       C  0.54668776  0.95389433  0.69843843    -0.19300
C1307       C  0.53247414  0.93744394  0.65774085    -0.28700
C1308       C  0.52697986  0.90844670  0.65383207     0.44200
C1309       C  0.55764771  0.89910578  0.76987983     0.05400
O1310       O  0.57049503  0.95892597  0.77329694    -0.57200
H1311       H  0.55167741  0.97640133  0.70147429     0.18300
O1312       O  0.51293748  0.89162416  0.61474014    -0.63900
H1313       H  0.53089470  0.87391090  0.68727040     0.16800
C1314       C  0.54720841  0.89733828  0.81662382     0.29000
C1315       C  0.55417486  0.88319195  0.85199851    -0.24800
C1316       C  0.57088506  0.86994203  0.84126085    -0.24100
C1317       C  0.58171052  0.87211157  0.79460911     0.40500
C1318       C  0.57498984  0.88655318  0.75933844    -0.26600
O1319       O  0.52924926  0.90835360  0.82773473    -0.58500
H1320       H  0.54533258  0.88142905  0.88745822     0.16100
O1321       O  0.59864778  0.86000279  0.78298554    -0.59900
H1322       H  0.58320580  0.88783206  0.72352317     0.14600
H1323       H  0.49186162  0.88076853  0.62338766     0.46400
H1324       H  0.50933701  0.89299546  0.81776650     0.41800
H1325       H  0.61911564  0.87565759  0.78925487     0.45300
H1326       H  0.55653374  0.96307859  0.79047252     0.36700
C1327       C  0.63806819  0.10454216  0.30411153    -0.27500
C1328       C  0.63383050  0.08838024  0.26227381     0.02100
C1329       C  0.60885011  0.06048565  0.25743766     0.30200
C1330       C  0.58844596  0.04903448  0.29439824    -0.19300
C1331       C  0.59268388  0.06499221  0.33659337    -0.28700
C1332       C  0.61765623  0.09311380  0.34111667     0.44200
C1333       C  0.65569235  0.10093837  0.22390477     0.05400
O1334       O  0.60507854  0.04371297  0.21779388    -0.57200
H1335       H  0.56961983  0.02726525  0.29044768     0.18300
O1336       O  0.62229514  0.10966421  0.38131168    -0.63900
H1337       H  0.65718986  0.12618263  0.30789132     0.16800
C1338       C  0.64781059  0.10586245  0.17843062     0.29000
C1339       C  0.66909190  0.11881238  0.14305284    -0.24800
C1340       C  0.69848441  0.12780492  0.15289404    -0.24100
C1341       C  0.70632221  0.12253859  0.19826662     0.40500
C1342       C  0.68491130  0.10911385  0.23341643    -0.26600
O1343       O  0.61963779  0.09926875  0.16889555    -0.58500
H1344       H  0.66285856  0.12335674  0.10867870     0.16100
O1345       O  0.73488414  0.13101560  0.20890974    -0.59900
H1346       H  0.69114603  0.10540940  0.26839300     0.14600
H1347       H  0.61079229  0.11966042  0.37642442     0.46400
H1348       H  0.61928876  0.11758790  0.17552286     0.41800
H1349       H  0.73762996  0.11469581  0.19772177     0.45300
H1350       H  0.58827762  0.04281970  0.20039264     0.36700
C1351       C  0.60901069  0.06516215  0.74488846    -0.27500
C1352       C  0.63652057  0.08957899  0.73511782     0.02100
C1353       C  0.64309095  0.10058476  0.68828501     0.30200
C1354       C  0.62223649  0.08726826  0.65219412    -0.19300
C1355       C  0.59438337  0.06305433  0.66195014    -0.28700
C1356       C  0.58791539  0.05214646  0.70913562     0.44200
C1357       C  0.65791414  0.10381619  0.77420389     0.05400
O1358       O  0.66973201  0.12456907  0.67744375    -0.57200
H1359       H  0.62786499  0.09623498  0.61652142     0.18300
O1360       O  0.56134193  0.02834627  0.72077032    -0.63900
H1361       H  0.60380024  0.05606417  0.78052745     0.16800
C1362       C  0.64985656  0.11246493  0.81640261     0.29000
C1363       C  0.67068358  0.12701740  0.85198584    -0.24800
C1364       C  0.69965694  0.13345343  0.84600469    -0.24100
C1365       C  0.70765942  0.12427591  0.80450642     0.40500
C1366       C  0.68677669  0.10938903  0.76902792    -0.26600
O1367       O  0.62220280  0.10841867  0.82188874    -0.58500
H1368       H  0.66444869  0.13423497  0.88365542     0.16100
O1369       O  0.73579203  0.12981330  0.79831315    -0.59900
H1370       H  0.69317264  0.10235950  0.73723818     0.14600
H1371       H  0.54952155  0.03665784  0.73361532     0.46400
H1372       H  0.61247857  0.09249194  0.84576581     0.41800
H1373       H  0.73617537  0.11293362  0.81324482     0.45300
H1374       H  0.66766051  0.14181687  0.68514939     0.36700
C1375       C  0.43262043  0.09023193  0.18823359    -0.27500
C1376       C  0.44739386  0.10562741  0.22947829     0.02100
C1377       C  0.45553367  0.13532069  0.23409891     0.30200
C1378       C  0.44894457  0.14922502  0.19784400    -0.19300
C1379       C  0.43407875  0.13399096  0.15648722    -0.28700
C1380       C  0.42575947  0.10413022  0.15195893     0.44200
C1381       C  0.45507687  0.09090386  0.26697846     0.05400
O1382       O  0.47137907  0.15133736  0.27278981    -0.57200
H1383       H  0.45616463  0.17233608  0.20181687     0.18300
O1384       O  0.41086179  0.08830766  0.11256191    -0.63900
H1385       H  0.42624501  0.06732197  0.18434297     0.16800
C1386       C  0.44542099  0.08930038  0.31418093     0.29000
C1387       C  0.45426862  0.07670184  0.34954772    -0.24800
C1388       C  0.47244427  0.06505469  0.33861310    -0.24100
C1389       C  0.48157264  0.06614562  0.29093134     0.40500
C1390       C  0.47294024  0.07908543  0.25570294    -0.26600
O1391       O  0.42722464  0.09989811  0.32610699    -0.58500
H1392       H  0.44648373  0.07570607  0.38558517     0.16100
O1393       O  0.49979590  0.05565499  0.27854898    -0.59900
H1394       H  0.48062425  0.08032961  0.21951683     0.14600
H1395       H  0.38982990  0.07988652  0.12054619     0.46400
H1396       H  0.40715564  0.08369808  0.31891449     0.41800
H1397       H  0.48671344  0.03576940  0.26546622     0.45300
H1398       H  0.45792894  0.15569302  0.29111544     0.36700
C1399       C  0.44000066  0.08966376  0.82127099    -0.27500
C1400       C  0.45290652  0.10352824  0.77806358     0.02100
C1401       C  0.45971933  0.13265162  0.77036423     0.30200
C1402       C  0.45315132  0.14733138  0.80507078    -0.19300
C1403       C  0.43994963  0.13357653  0.84831236    -0.28700
C1404       C  0.43361417  0.10449458  0.85645063     0.44200
C1405       C  0.45850953  0.08748307  0.74026397     0.05400
O1406       O  0.47279224  0.14698597  0.72882704    -0.57200
H1407       H  0.45872573  0.16977823  0.79803964     0.18300
O1408       O  0.42013814  0.08994439  0.89761756    -0.63900
H1409       H  0.43435627  0.06711045  0.82736569     0.16800
C1410       C  0.47651287  0.07528050  0.74828995     0.29000
C1411       C  0.48327140  0.06233793  0.71055955    -0.24800
C1412       C  0.47214089  0.06121924  0.66453401    -0.24100
C1413       C  0.45321848  0.07257634  0.65722244     0.40500
C1414       C  0.44663830  0.08557342  0.69486860    -0.26600
O1415       O  0.48889109  0.07737653  0.79214791    -0.58500
H1416       H  0.49779748  0.05374094  0.71723207     0.16100
O1417       O  0.44106722  0.07126819  0.61346268    -0.59900
H1418       H  0.43233345  0.09447305  0.68849158     0.14600
H1419       H  0.43622980  0.09201131  0.91852841     0.46400
H1420       H  0.47746123  0.05753768  0.80641844     0.41800
H1421       H  0.42227143  0.05237300  0.61330458     0.45300
H1422       H  0.49415574  0.15699040  0.73520715     0.36700
loop_ 
_geom_bond_atom_site_label_1 
_geom_bond_atom_site_label_2 
_geom_bond_distance 
_geom_bond_site_symmetry_2 
_ccdc_geom_bond_type 
O1          Zr13   2.445       .  S
O1            C3   1.289       .  A
O2          Zr39   2.405       .  S
O2            C3   1.283       .  A
C3         C1412   1.481       .  S
O4          Zr16   2.434       .  S
O4            C6   1.286       .  A
O5          Zr40   2.413   1_565  S
O5            C6   1.285       .  A
C6         C1244   1.476       .  S
O7          Zr16   2.438       .  S
O7            C9   1.288       .  A
O8          Zr39   2.415   1_565  S
O8            C9   1.285       .  A
C9         C1259   1.477       .  S
O10         Zr13   2.447       .  S
O10          C12   1.289       .  A
O11         Zr40   2.411       .  S
O11          C12   1.284       .  A
C12        C1388   1.484       .  S
Zr13         O14   2.434       .  S
Zr13         O15   2.436       .  S
Zr13         O19   2.369       .  S
Zr13         O20   2.369       .  S
Zr13         O43   2.373       .  S
Zr13         O45   2.373       .  S
O14          H57   0.990       .  S
O15          H56   0.990       .  S
O15          H60   0.990       .  S
Zr16         O17   2.436       .  S
Zr16         O18   2.434       .  S
Zr16         O20   2.366   1_565  S
Zr16         O19   2.366   1_565  S
Zr16         O44   2.372       .  S
Zr16         O46   2.373       .  S
O17          H58   0.990       .  S
O17          H61   0.990       .  S
O18          H51   0.990       .  S
O19         Zr39   2.374       .  S
O20         Zr40   2.377       .  S
O20          H47   0.966       .  S
O21         Zr33   2.438       .  S
O21          C23   1.287       .  A
O22         Zr40   2.409       .  S
O22          C23   1.284       .  A
C23        C1331   1.473       .  S
O24         Zr36   2.434       .  S
O24          C26   1.287       .  A
O25         Zr39   2.413   1_565  S
O25          C26   1.285       .  A
C26        C1307   1.473       .  S
O27         Zr36   2.444       .  S
O27          C29   1.288       .  A
O28         Zr40   2.408   1_565  S
O28          C29   1.284       .  A
C29        C1283   1.478       .  S
O30         Zr33   2.447       .  S
O30          C32   1.290       .  A
O31         Zr39   2.411       .  S
O31          C32   1.284       .  A
C32        C1355   1.487       .  S
Zr33         O34   2.436       .  S
Zr33         O35   2.434       .  S
Zr33         O41   2.374       .  S
Zr33         O42   2.369   1_545  S
Zr33         O45   2.372       .  S
Zr33         O43   2.377       .  S
O34          H54   0.990       .  S
O34          H59   0.990       .  S
O35          H55   0.990       .  S
Zr36         O37   2.434       .  S
Zr36         O38   2.435       .  S
Zr36         O42   2.374       .  S
Zr36         O41   2.369   1_565  S
Zr36         O46   2.368       .  S
Zr36         O44   2.372       .  S
O37          H53   0.990       .  S
O38          H52   0.990       .  S
O38          H62   0.990       .  S
Zr39         O42   2.373   1_545  S
Zr39         O44   2.383   1_545  S
Zr39         O45   2.382       .  S
Zr40         O41   2.379       .  S
Zr40         O43   2.380       .  S
Zr40         O46   2.379   1_545  S
O41          H49   0.966       .  S
O44          H48   0.966       .  S
O45          H50   0.966       .  S
O63         Zr75   2.449       .  S
O63          C65   1.290       .  A
O64        Zr101   2.396   1_455  S
O64          C65   1.281       .  A
C65        C1220   1.479       .  S
O66         Zr78   2.446       .  S
O66          C68   1.289       .  A
O67        Zr102   2.415       .  S
O67          C68   1.285       .  A
C68        C1052   1.479       .  S
O69         Zr78   2.441       .  S
O69          C71   1.288       .  A
O70        Zr101   2.409       .  S
O70          C71   1.284       .  A
C71        C1067   1.475       .  S
O72         Zr75   2.455       .  S
O72          C74   1.291       .  A
O73        Zr102   2.411   1_455  S
O73          C74   1.284       .  A
C74        C1196   1.489       .  S
Zr75         O76   2.434       .  S
Zr75         O77   2.434       .  S
Zr75         O81   2.370       .  S
Zr75         O82   2.374       .  S
Zr75        O105   2.371       .  S
Zr75        O107   2.370       .  S
O76         H119   0.990       .  S
O77         H118   0.990       .  S
O77         H122   0.990       .  S
Zr78         O79   2.436       .  S
Zr78         O80   2.434       .  S
Zr78         O82   2.371   1_655  S
Zr78         O81   2.369   1_655  S
Zr78        O106   2.378       .  S
Zr78        O108   2.373       .  S
O79         H120   0.990       .  S
O79         H123   0.990       .  S
O80         H113   0.990       .  S
O81        Zr101   2.373   1_455  S
O82        Zr102   2.381   1_455  S
O82         H109   0.965       .  S
O83         Zr95   2.449       .  S
O83          C85   1.290       .  A
O84        Zr102   2.413   1_455  S
O84          C85   1.284       .  A
C85        C1148   1.485       .  S
O86         Zr98   2.450       .  S
O86          C88   1.289       .  A
O87        Zr101   2.404       .  S
O87          C88   1.283       .  A
C88        C1124   1.477       .  S
O89         Zr98   2.435       .  S
O89          C91   1.287       .  A
O90        Zr102   2.408       .  S
O90          C91   1.284       .  A
C91        C1100   1.475       .  S
O92         Zr95   2.445       .  S
O92          C94   1.289       .  A
O93        Zr101   2.407   1_455  S
O93          C94   1.284       .  A
C94        C1172   1.484       .  S
Zr95         O96   2.437       .  S
Zr95         O97   2.434       .  S
Zr95        O103   2.369   1_455  S
Zr95        O104   2.371   1_455  S
Zr95        O107   2.375       .  S
Zr95        O105   2.374       .  S
O96         H116   0.990       .  S
O96         H121   0.990       .  S
O97         H117   0.990       .  S
Zr98         O99   2.433       .  S
Zr98        O100   2.436       .  S
Zr98        O104   2.366       .  S
Zr98        O103   2.376       .  S
Zr98        O108   2.379       .  S
Zr98        O106   2.369       .  S
O99         H115   0.990       .  S
O100        H114   0.990       .  S
O100        H124   0.990       .  S
Zr101       O104   2.370       .  S
Zr101       O106   2.378       .  S
Zr101       O107   2.381   1_655  S
Zr102       O103   2.381       .  S
Zr102       O105   2.377   1_655  S
Zr102       O108   2.381       .  S
O103        H111   0.966       .  S
O106        H110   0.966       .  S
O107        H112   0.966       .  S
O125       Zr137   2.453       .  S
O125        C127   1.290       .  A
O126       Zr163   2.410       .  S
O126        C127   1.284       .  A
C127        C971   1.477       .  S
O128       Zr140   2.439       .  S
O128        C130   1.287       .  A
O129       Zr164   2.408       .  S
O129        C130   1.284       .  A
C130       C1004   1.482       .  S
O131       Zr140   2.436       .  S
O131        C133   1.287       .  A
O132       Zr163   2.423       .  S
O132        C133   1.286       .  A
C133       C1028   1.480       .  S
O134       Zr137   2.449       .  S
O134        C136   1.290       .  A
O135       Zr164   2.401       .  S
O135        C136   1.282       .  A
C136        C956   1.482       .  S
Zr137       O138   2.435       .  S
Zr137       O139   2.437       .  S
Zr137       O143   2.376       .  S
Zr137       O144   2.370       .  S
Zr137       O167   2.372       .  S
Zr137       O169   2.369       .  S
O138        H181   0.990       .  S
O139        H180   0.990       .  S
O139        H184   0.990       .  S
Zr140       O141   2.435       .  S
Zr140       O142   2.434       .  S
Zr140       O144   2.370       .  S
Zr140       O143   2.376       .  S
Zr140       O168   2.367       .  S
Zr140       O170   2.372       .  S
O141        H182   0.990       .  S
O141        H185   0.990       .  S
O142        H175   0.990       .  S
O143       Zr163   2.384       .  S
O144       Zr164   2.383       .  S
O144        H171   0.966       .  S
O145       Zr157   2.447       .  S
O145        C147   1.290       .  A
O146       Zr164   2.413       .  S
O146        C147   1.284       .  A
C147        C899   1.482       .  S
O148       Zr160   2.449       .  S
O148        C150   1.290       .  A
O149       Zr163   2.405       .  S
O149        C150   1.283       .  A
C150        C884   1.478       .  S
O151       Zr160   2.451       .  S
O151        C153   1.289       .  A
O152       Zr164   2.415       .  S
O152        C153   1.285       .  A
C153        C851   1.480       .  S
O154       Zr157   2.441       .  S
O154        C156   1.288       .  A
O155       Zr163   2.422       .  S
O155        C156   1.286       .  A
C156        C932   1.478       .  S
Zr157       O158   2.433       .  S
Zr157       O159   2.434       .  S
Zr157       O165   2.371       .  S
Zr157       O166   2.377       .  S
Zr157       O169   2.371       .  S
Zr157       O167   2.367       .  S
O158        H178   0.990       .  S
O158        H183   0.990       .  S
O159        H179   0.990       .  S
Zr160       O161   2.435       .  S
Zr160       O162   2.435       .  S
Zr160       O166   2.378       .  S
Zr160       O165   2.373       .  S
Zr160       O170   2.375       .  S
Zr160       O168   2.371       .  S
O161        H177   0.990       .  S
O162        H176   0.990       .  S
O162        H186   0.990       .  S
Zr163       O166   2.383       .  S
Zr163       O168   2.380       .  S
Zr163       O169   2.381       .  S
Zr164       O165   2.379       .  S
Zr164       O167   2.374       .  S
Zr164       O170   2.374       .  S
O165        H173   0.966       .  S
O168        H172   0.965       .  S
O169        H174   0.966       .  S
O187       Zr199   2.437   1_556  S
O187        C189   1.287       .  A
O188       Zr225   2.431       .  S
O188        C189   1.286   1_554  A
C189        C803   1.476       .  S
O190       Zr202   2.437       .  S
O190        C192   1.288       .  A
O191       Zr226   2.422       .  S
O191        C192   1.286       .  A
C192        C923   1.489       .  S
O193       Zr202   2.435       .  S
O193        C195   1.287       .  A
O194       Zr225   2.419   1_556  S
O194        C195   1.286       .  A
C195       C1076   1.475       .  S
O196       Zr199   2.432   1_556  S
O196        C198   1.288       .  A
O197       Zr226   2.430       .  S
O197        C198   1.287       .  A
C198        C827   1.482       .  S
Zr199       O200   2.435   1_554  S
Zr199       O201   2.436       .  S
Zr199       O205   2.367   1_554  S
Zr199       O206   2.367   1_554  S
Zr199       O229   2.369       .  S
Zr199       O231   2.362       .  S
O200        H243   0.990       .  S
O201        H242   0.990       .  S
O201        H246   0.990       .  S
Zr202       O203   2.436       .  S
Zr202       O204   2.434       .  S
Zr202       O206   2.368       .  S
Zr202       O205   2.372       .  S
Zr202       O230   2.367       .  S
Zr202       O232   2.371       .  S
O203        H244   0.990       .  S
O203        H247   0.990       .  S
O204        H237   0.990       .  S
O205       Zr225   2.379   1_556  S
O206       Zr226   2.383       .  S
O206        H233   0.966       .  S
O207       Zr219   2.443       .  S
O207        C209   1.288       .  A
O208       Zr226   2.427   1_554  S
O208        C209   1.287       .  A
C209        C908   1.483       .  S
O210       Zr222   2.468       .  S
O210        C212   1.293       .  A
O211       Zr225   2.408   1_556  S
O211        C212   1.285       .  A
C212        C755   1.480       .  S
O213       Zr222   2.464       .  S
O213        C215   1.292       .  A
O214       Zr226   2.413       .  S
O214        C215   1.286       .  A
C215        C779   1.483       .  S
O216       Zr219   2.428       .  S
O216        C218   1.285       .  A
O217       Zr225   2.431       .  S
O217        C218   1.288       .  A
C218       C1043   1.491       .  S
Zr219       O220   2.435       .  S
Zr219       O221   2.434       .  S
Zr219       O227   2.367       .  S
Zr219       O228   2.374       .  S
Zr219       O231   2.374       .  S
Zr219       O229   2.371       .  S
O220        H240   0.990       .  S
O220        H245   0.990       .  S
O221        H241   0.990       .  S
Zr222       O223   2.434   1_556  S
Zr222       O224   2.434       .  S
Zr222       O228   2.382   1_556  S
Zr222       O227   2.379   1_556  S
Zr222       O232   2.380       .  S
Zr222       O230   2.374       .  S
O223        H239   0.990       .  S
O224        H238   0.990       .  S
O224        H248   0.990       .  S
Zr225       O228   2.387       .  S
Zr225       O230   2.389   1_554  S
Zr225       O231   2.380       .  S
Zr226       O227   2.387   1_556  S
Zr226       O229   2.376   1_556  S
Zr226       O232   2.387       .  S
O227        H235   0.966       .  S
O230        H234   0.966       .  S
O231        H236   0.966       .  S
O249       Zr261   2.452       .  S
O249        C251   1.289       .  A
O250       Zr287   2.435       .  S
O250        C251   1.287       .  A
C251        C731   1.479       .  S
O252       Zr264   2.434       .  S
O252        C254   1.287       .  A
O253       Zr288   2.428   1_556  S
O253        C254   1.288       .  A
C254       C1115   1.480       .  S
O255       Zr264   2.429       .  S
O255        C257   1.286       .  A
O256       Zr287   2.414   1_556  S
O256        C257   1.285       .  A
C257       C1364   1.465       .  S
O258       Zr261   2.434       .  S
O258        C260   1.288       .  A
O259       Zr288   2.434       .  S
O259        C260   1.288       .  A
C260        C812   1.484       .  S
Zr261       O262   2.433   1_554  S
Zr261       O263   2.438       .  S
Zr261       O267   2.365   1_554  S
Zr261       O268   2.375   1_554  S
Zr261       O291   2.367       .  S
Zr261       O293   2.361       .  S
O262        H305   0.990       .  S
O263        H304   0.990       .  S
O263        H308   0.990       .  S
Zr264       O265   2.436       .  S
Zr264       O266   2.433       .  S
Zr264       O268   2.372       .  S
Zr264       O267   2.375       .  S
Zr264       O292   2.366       .  S
Zr264       O294   2.369       .  S
O265        H306   0.990       .  S
O265        H309   0.990       .  S
O266        H299   0.990       .  S
O267       Zr287   2.370   1_556  S
O268       Zr288   2.379   1_556  S
O268        H295   0.966       .  S
O269       Zr281   2.427       .  S
O269        C271   1.285       .  A
O270       Zr288   2.410       .  S
O270        C271   1.284       .  A
C271       C1091   1.469       .  S
O272       Zr284   2.455   1_554  S
O272        C274   1.291   1_554  A
O273       Zr287   2.413   1_556  S
O273        C274   1.286       .  A
C274        C692   1.482       .  S
O275       Zr284   2.456   1_554  S
O275        C277   1.290       .  A
O276       Zr288   2.423       .  S
O276        C277   1.287       .  A
C277        C707   1.479       .  S
O278       Zr281   2.422       .  S
O278        C280   1.284       .  A
O279       Zr287   2.413       .  S
O279        C280   1.285       .  A
C280       C1340   1.465       .  S
Zr281       O282   2.434       .  S
Zr281       O283   2.434       .  S
Zr281       O289   2.362       .  S
Zr281       O290   2.367       .  S
Zr281       O293   2.369       .  S
Zr281       O291   2.366       .  S
O282        H302   0.990       .  S
O282        H307   0.990       .  S
O283        H303   0.990       .  S
Zr284       O285   2.434   1_556  S
Zr284       O286   2.435       .  S
Zr284       O290   2.378   1_556  S
Zr284       O289   2.379   1_556  S
Zr284       O294   2.378       .  S
Zr284       O292   2.374       .  S
O285        H301   0.990       .  S
O286        H300   0.990       .  S
O286        H310   0.990       .  S
Zr287       O290   2.385       .  S
Zr287       O292   2.383   1_554  S
Zr287       O293   2.377       .  S
Zr288       O289   2.391       .  S
Zr288       O291   2.378       .  S
Zr288       O294   2.380   1_554  S
O289        H297   0.966       .  S
O292        H296   0.966       .  S
O293        H298   0.966       .  S
O311       Zr323   2.446   1_556  S
O311        C313   1.290       .  A
O312       Zr349   2.427       .  S
O312        C313   1.287       .  A
C313        C668   1.483       .  S
O314       Zr326   2.417       .  S
O314        C316   1.283       .  A
O315       Zr350   2.436       .  S
O315        C316   1.289       .  A
C316       C1211   1.484       .  S
O317       Zr326   2.426       .  S
O317        C319   1.285       .  A
O318       Zr349   2.431       .  S
O318        C319   1.288       .  A
C319       C1268   1.481       .  S
O320       Zr323   2.444       .  S
O320        C322   1.289       .  A
O321       Zr350   2.419   1_554  S
O321        C322   1.285       .  A
C322        C635   1.476       .  S
Zr323       O324   2.435   1_554  S
Zr323       O325   2.435       .  S
Zr323       O329   2.369   1_554  S
Zr323       O330   2.368   1_554  S
Zr323       O353   2.362       .  S
Zr323       O355   2.357       .  S
O324        H367   0.990       .  S
O325        H366   0.990       .  S
O325        H370   0.990       .  S
Zr326       O327   2.435       .  S
Zr326       O328   2.435       .  S
Zr326       O330   2.373       .  S
Zr326       O329   2.365       .  S
Zr326       O354   2.361       .  S
Zr326       O356   2.370       .  S
O327        H368   0.990       .  S
O327        H371   0.990       .  S
O328        H361   0.990       .  S
O329       Zr349   2.373       .  S
O330       Zr350   2.380       .  S
O330        H357   0.966       .  S
O331       Zr343   2.430       .  S
O331        C333   1.285       .  A
O332       Zr350   2.430   1_554  S
O332        C333   1.287       .  A
C333       C1187   1.475       .  S
O334       Zr346   2.467       .  S
O334        C336   1.294       .  A
O335       Zr349   2.415       .  S
O335        C336   1.286       .  A
C336        C611   1.484       .  S
O337       Zr346   2.477       .  S
O337        C339   1.294       .  A
O338       Zr350   2.404       .  S
O338        C339   1.285       .  A
C339        C764   1.493       .  S
O340       Zr343   2.429       .  S
O340        C342   1.286       .  A
O341       Zr349   2.427   1_554  S
O341        C342   1.287       .  A
C342       C1235   1.483       .  S
Zr343       O344   2.435       .  S
Zr343       O345   2.434       .  S
Zr343       O351   2.366       .  S
Zr343       O352   2.368       .  S
Zr343       O355   2.374       .  S
Zr343       O353   2.371       .  S
O344        H364   0.990       .  S
O344        H369   0.990       .  S
O345        H365   0.990       .  S
Zr346       O347   2.437   1_556  S
Zr346       O348   2.434       .  S
Zr346       O352   2.385   1_556  S
Zr346       O351   2.379   1_556  S
Zr346       O356   2.381       .  S
Zr346       O354   2.383       .  S
O347        H363   0.990       .  S
O348        H362   0.990       .  S
O348        H372   0.990       .  S
Zr349       O352   2.392   1_556  S
Zr349       O354   2.386       .  S
Zr349       O355   2.382   1_556  S
Zr350       O351   2.392   1_556  S
Zr350       O353   2.374   1_556  S
Zr350       O356   2.382       .  S
O351        H359   0.966       .  S
O354        H358   0.966       .  S
O355        H360   0.965       .  S
O373       Zr385   2.432       .  S
O373        C375   1.286       .  A
O374       Zr411   2.417       .  S
O374        C375   1.286       .  A
C375       C1316   1.475       .  S
O376       Zr388   2.433       .  S
O376        C378   1.288       .  A
O377       Zr412   2.434   1_556  S
O377        C378   1.287       .  A
C378        C587   1.486       .  S
O379       Zr388   2.439   1_554  S
O379        C381   1.287   1_554  A
O380       Zr411   2.440       .  S
O380        C381   1.288       .  A
C381        C659   1.479   1_556  S
O382       Zr385   2.443       .  S
O382        C384   1.289       .  A
O383       Zr412   2.423   1_556  S
O383        C384   1.286       .  A
C384        C980   1.487       .  S
Zr385       O386   2.434       .  S
Zr385       O387   2.436       .  S
Zr385       O391   2.379       .  S
Zr385       O392   2.369       .  S
Zr385       O415   2.366       .  S
Zr385       O417   2.370       .  S
O386        H429   0.990       .  S
O387        H428   0.990       .  S
O387        H432   0.990       .  S
Zr388       O389   2.436       .  S
Zr388       O390   2.434   1_556  S
Zr388       O392   2.363       .  S
Zr388       O391   2.368       .  S
Zr388       O416   2.362   1_556  S
Zr388       O418   2.371   1_556  S
O389        H430   0.990       .  S
O389        H433   0.990       .  S
O390        H423   0.990       .  S
O391       Zr411   2.375       .  S
O392       Zr412   2.380   1_556  S
O392        H419   0.965       .  S
O393       Zr405   2.469       .  S
O393        C395   1.293       .  A
O394       Zr412   2.414   1_556  S
O394        C395   1.286       .  A
C395        C788   1.491       .  S
O396       Zr408   2.443       .  S
O396        C398   1.288       .  A
O397       Zr411   2.417   1_554  S
O397        C398   1.285       .  A
C398       C1292   1.479       .  S
O399       Zr408   2.418       .  S
O399        C401   1.284       .  A
O400       Zr412   2.432       .  S
O400        C401   1.288       .  A
C401        C947   1.478       .  S
O402       Zr405   2.464   1_554  S
O402        C404   1.292       .  A
O403       Zr411   2.408   1_554  S
O403        C404   1.285       .  A
C404        C683   1.481       .  S
Zr405       O406   2.436   1_556  S
Zr405       O407   2.435       .  S
Zr405       O413   2.383   1_556  S
Zr405       O414   2.381   1_556  S
Zr405       O417   2.382       .  S
Zr405       O415   2.375       .  S
O406        H426   0.990       .  S
O406        H431   0.990       .  S
O407        H427   0.990       .  S
Zr408       O409   2.435       .  S
Zr408       O410   2.437       .  S
Zr408       O414   2.361       .  S
Zr408       O413   2.374       .  S
Zr408       O418   2.378       .  S
Zr408       O416   2.365       .  S
O409        H425   0.990       .  S
O410        H424   0.990       .  S
O410        H434   0.990       .  S
Zr411       O414   2.386   1_556  S
Zr411       O416   2.375   1_556  S
Zr411       O417   2.390       .  S
Zr412       O413   2.392       .  S
Zr412       O415   2.385   1_554  S
Zr412       O418   2.380       .  S
O413        H421   0.966       .  S
O416        H420   0.966       .  S
O417        H422   0.966       .  S
O435       Zr447   2.440   1_556  S
O435        C437   1.288   1_556  A
O436       Zr473   2.421       .  S
O436        C437   1.284       .  A
C437        C644   1.470       .  S
O438       Zr450   2.436       .  S
O438        C440   1.287       .  A
O439       Zr474   2.415       .  S
O439        C440   1.284       .  A
C440       C1019   1.485       .  S
O441       Zr450   2.425       .  S
O441        C443   1.285       .  A
O442       Zr473   2.423   1_556  S
O442        C443   1.286       .  A
C443       C1163   1.478       .  S
O444       Zr447   2.436       .  S
O444        C446   1.288       .  A
O445       Zr474   2.431   1_554  S
O445        C446   1.287       .  A
C446        C596   1.482       .  S
Zr447       O448   2.434   1_554  S
Zr447       O449   2.435       .  S
Zr447       O453   2.364   1_554  S
Zr447       O454   2.367   1_554  S
Zr447       O477   2.367       .  S
Zr447       O479   2.364       .  S
O448        H491   0.990       .  S
O449        H490   0.990       .  S
O449        H494   0.990       .  S
Zr450       O451   2.436       .  S
Zr450       O452   2.436       .  S
Zr450       O454   2.369       .  S
Zr450       O453   2.373       .  S
Zr450       O478   2.370       .  S
Zr450       O480   2.367       .  S
O451        H492   0.990       .  S
O451        H495   0.990       .  S
O452        H485   0.990       .  S
O453       Zr473   2.378   1_556  S
O454       Zr474   2.378       .  S
O454        H481   0.966       .  S
O455       Zr467   2.430       .  S
O455        C457   1.286       .  A
O456       Zr474   2.410   1_554  S
O456        C457   1.283       .  A
C457        C995   1.467       .  S
O458       Zr470   2.474   1_554  S
O458        C460   1.294       .  A
O459       Zr473   2.397       .  S
O459        C460   1.283       .  A
C460        C716   1.492       .  S
O461       Zr470   2.472       .  S
O461        C463   1.294       .  A
O462       Zr474   2.412       .  S
O462        C463   1.286       .  A
C463        C572   1.495       .  S
O464       Zr467   2.428       .  S
O464        C466   1.285       .  A
O465       Zr473   2.431       .  S
O465        C466   1.287       .  A
C466       C1139   1.485       .  S
Zr467       O468   2.435       .  S
Zr467       O469   2.433       .  S
Zr467       O475   2.364       .  S
Zr467       O476   2.368       .  S
Zr467       O479   2.370       .  S
Zr467       O477   2.370       .  S
O468        H488   0.990       .  S
O468        H493   0.990       .  S
O469        H489   0.990       .  S
Zr470       O471   2.434   1_556  S
Zr470       O472   2.434       .  S
Zr470       O476   2.383   1_556  S
Zr470       O475   2.384   1_556  S
Zr470       O480   2.381       .  S
Zr470       O478   2.377       .  S
O471        H487   0.990       .  S
O472        H486   0.990       .  S
O472        H496   0.990       .  S
Zr473       O476   2.385       .  S
Zr473       O478   2.391   1_554  S
Zr473       O479   2.377       .  S
Zr474       O475   2.389   1_556  S
Zr474       O477   2.375   1_556  S
Zr474       O480   2.382       .  S
O475        H483   0.966       .  S
O478        H482   0.966       .  S
O479        H484   0.966       .  S
O497       Zr509   2.427       .  S
O497        C499   1.287       .  A
O498       Zr535   2.419   1_556  S
O498        C499   1.285       .  A
C499       C1403   1.480       .  S
O500       Zr512   2.429   1_554  S
O500        C502   1.287       .  A
O501       Zr536   2.420       .  S
O501        C502   1.285   1_556  A
C502        C836   1.473       .  S
O503       Zr512   2.440       .  S
O503        C505   1.288       .  A
O504       Zr535   2.431       .  S
O504        C505   1.287   1_554  A
C505        C740   1.481       .  S
O506       Zr509   2.441       .  S
O506        C508   1.288       .  A
O507       Zr536   2.416       .  S
O507        C508   1.285       .  A
C508        C875   1.476       .  S
Zr509       O510   2.435       .  S
Zr509       O511   2.434       .  S
Zr509       O515   2.371       .  S
Zr509       O516   2.371       .  S
Zr509       O539   2.365       .  S
Zr509       O541   2.370       .  S
O510        H553   0.990       .  S
O511        H552   0.990       .  S
O511        H556   0.990       .  S
Zr512       O513   2.435       .  S
Zr512       O514   2.433   1_556  S
Zr512       O516   2.366       .  S
Zr512       O515   2.359       .  S
Zr512       O540   2.362   1_556  S
Zr512       O542   2.369   1_556  S
O513        H554   0.990       .  S
O513        H557   0.990       .  S
O514        H547   0.990       .  S
O515       Zr535   2.378   1_556  S
O516       Zr536   2.382       .  S
O516        H543   0.966       .  S
O517       Zr529   2.476       .  S
O517        C519   1.294       .  A
O518       Zr536   2.406       .  S
O518        C519   1.284       .  A
C519        C563   1.485       .  S
O520       Zr532   2.429       .  S
O520        C522   1.287       .  A
O521       Zr535   2.428       .  S
O521        C522   1.287       .  A
C522       C1379   1.481       .  S
O523       Zr532   2.438       .  S
O523        C525   1.288       .  A
O524       Zr536   2.425   1_554  S
O524        C525   1.286       .  A
C525        C860   1.485       .  S
O526       Zr529   2.476   1_554  S
O526        C528   1.295       .  A
O527       Zr535   2.403       .  S
O527        C528   1.284       .  A
C528        C620   1.491       .  S
Zr529       O530   2.434   1_556  S
Zr529       O531   2.435       .  S
Zr529       O537   2.383   1_556  S
Zr529       O538   2.383   1_556  S
Zr529       O541   2.382       .  S
Zr529       O539   2.379       .  S
O530        H550   0.990       .  S
O530        H555   0.990       .  S
O531        H551   0.990       .  S
Zr532       O533   2.434       .  S
Zr532       O534   2.435       .  S
Zr532       O538   2.372       .  S
Zr532       O537   2.369       .  S
Zr532       O542   2.364       .  S
Zr532       O540   2.370       .  S
O533        H549   0.990       .  S
O534        H548   0.990       .  S
O534        H558   0.990       .  S
Zr535       O538   2.386       .  S
Zr535       O540   2.374       .  S
Zr535       O541   2.391   1_554  S
Zr536       O537   2.385   1_556  S
Zr536       O539   2.382       .  S
Zr536       O542   2.373   1_556  S
O537        H545   0.966       .  S
O540        H544   0.966       .  S
O541        H546   0.966       .  S
C559        C560   1.403       .  A
C559        C564   1.397       .  A
C559        H569   1.084       .  S
C560        C565   1.490       .  S
C560        C561   1.411   1_556  A
C561        C562   1.409       .  A
C561        O566   1.371       .  S
C562        C563   1.406   1_554  A
C562        H567   1.083       .  S
C563        C564   1.412       .  A
C564        O568   1.373       .  S
C565        C570   1.407   1_556  A
C565        C574   1.406       .  A
O566        H582   0.992       .  S
O568        H579   0.992       .  S
C570        C571   1.396       .  A
C570        O575   1.373       .  S
C571        C572   1.408   1_554  A
C571        H576   1.083       .  S
C572        C573   1.415       .  A
C573        C574   1.410       .  A
C573        O577   1.371       .  S
C574        H578   1.083       .  S
O575        H580   0.992   1_554  S
O577        H581   0.992       .  S
C583        C584   1.404   1_554  A
C583        C588   1.408       .  A
C583        H593   1.083       .  S
C584        C589   1.479   1_556  S
C584        C585   1.405       .  A
C585        C586   1.392       .  A
C585        O590   1.372       .  S
C586        C587   1.406       .  A
C586        H591   1.084       .  S
C587        C588   1.414   1_556  A
C588        O592   1.371       .  S
C589        C594   1.407   1_554  A
C589        C598   1.401       .  A
O590        H606   0.992       .  S
O592        H603   0.992       .  S
C594        C595   1.406       .  A
C594        O599   1.371       .  S
C595        C596   1.408   1_556  A
C595        H600   1.083       .  S
C596        C597   1.411       .  A
C597        C598   1.394       .  A
C597        O601   1.372       .  S
C598        H602   1.084       .  S
O599        H604   0.992       .  S
O601        H605   0.992       .  S
C607        C608   1.402       .  A
C607        C612   1.398       .  A
C607        H617   1.084       .  S
C608        C613   1.484   1_566  S
C608        C609   1.408   1_556  A
C609        C610   1.406       .  A
C609        O614   1.371       .  S
C610        C611   1.406   1_554  A
C610        H615   1.083       .  S
C611        C612   1.412       .  A
C612        O616   1.372       .  S
C613        C618   1.406       .  A
C613        C622   1.405   1_554  A
O614        H630   0.992       .  S
O616        H627   0.992       .  S
C618        C619   1.395       .  A
C618        O623   1.372       .  S
C619        C620   1.409       .  A
C619        H624   1.083       .  S
C620        C621   1.413   1_554  A
C621        C622   1.408       .  A
C621        O625   1.371       .  S
C622        H626   1.083       .  S
O623        H628   0.992       .  S
O625        H629   0.992       .  S
C631        C632   1.403   1_556  A
C631        C636   1.403       .  A
C631        H641   1.084       .  S
C632        C637   1.476       .  S
C632        C633   1.406       .  A
C633        C634   1.397       .  A
C633        O638   1.372       .  S
C634        C635   1.404       .  A
C634        H639   1.084       .  S
C635        C636   1.410   1_554  A
C636        O640   1.372       .  S
C637        C642   1.408       .  A
C637        C646   1.402   1_554  A
O638        H654   0.992       .  S
O640        H651   0.992       .  S
C642        C643   1.403       .  A
C642        O647   1.371       .  S
C643        C644   1.404       .  A
C643        H648   1.084       .  S
C644        C645   1.406   1_554  A
C645        C646   1.396       .  A
C645        O649   1.372       .  S
C646        H650   1.084       .  S
O647        H652   0.992       .  S
O649        H653   0.992       .  S
C655        C656   1.401   1_554  A
C655        C660   1.399       .  A
C655        H665   1.084       .  S
C656        C661   1.480       .  S
C656        C657   1.408       .  A
C657        C658   1.407       .  A
C657        O662   1.371       .  S
C658        C659   1.405   1_556  A
C658        H663   1.083       .  S
C659        C660   1.409       .  A
C660        O664   1.372       .  S
C661        C666   1.406       .  A
C661        C670   1.403   1_556  A
O662        H678   0.992       .  S
O664        H675   0.992       .  S
C666        C667   1.399       .  A
C666        O671   1.372       .  S
C667        C668   1.404       .  A
C667        H672   1.084       .  S
C668        C669   1.412   1_556  A
C669        C670   1.406       .  A
C669        O673   1.372       .  S
C670        H674   1.083       .  S
O671        H676   0.992       .  S
O673        H677   0.992       .  S
C679        C680   1.400       .  A
C679        C684   1.394       .  A
C679        H689   1.084       .  S
C680        C685   1.479   1_565  S
C680        C681   1.408   1_554  A
C681        C682   1.406       .  A
C681        O686   1.371       .  S
C682        C683   1.407   1_556  A
C682        H687   1.083       .  S
C683        C684   1.412       .  A
C684        O688   1.372       .  S
C685        C690   1.406   1_554  A
C685        C694   1.403       .  A
O686        H702   0.992       .  S
O688        H699   0.992       .  S
C690        C691   1.396       .  A
C690        O695   1.372       .  S
C691        C692   1.405       .  A
C691        H696   1.084       .  S
C692        C693   1.413   1_556  A
C693        C694   1.405       .  A
C693        O697   1.371       .  S
C694        H698   1.083       .  S
O695        H700   0.992       .  S
O697        H701   0.992       .  S
C703        C704   1.402       .  A
C703        C708   1.397       .  A
C703        H713   1.084       .  S
C704        C709   1.482   1_655  S
C704        C705   1.409   1_554  A
C705        C706   1.405       .  A
C705        O710   1.372       .  S
C706        C707   1.406   1_556  A
C706        H711   1.083       .  S
C707        C708   1.409       .  A
C708        O712   1.372       .  S
C709        C714   1.404   1_554  A
C709        C718   1.405       .  A
O710        H726   0.992       .  S
O712        H723   0.992       .  S
C714        C715   1.394       .  A
C714        O719   1.373       .  S
C715        C716   1.410   1_556  A
C715        H720   1.084       .  S
C716        C717   1.414       .  A
C717        C718   1.408       .  A
C717        O721   1.371       .  S
C718        H722   1.083       .  S
O719        H724   0.992   1_556  S
O721        H725   0.992       .  S
C727        C728   1.403       .  A
C727        C732   1.401       .  A
C727        H737   1.084       .  S
C728        C733   1.483   1_554  S
C728        C729   1.409   1_554  A
C729        C730   1.404       .  A
C729        O734   1.372       .  S
C730        C731   1.404   1_556  A
C730        H735   1.081       .  S
C731        C732   1.408       .  A
C732        O736   1.371       .  S
C733        C738   1.409   1_556  A
C733        C742   1.401       .  A
O734        H750   0.992       .  S
O736        H747   0.992       .  S
C738        C739   1.407       .  A
C738        O743   1.372       .  S
C739        C740   1.406   1_554  A
C739        H744   1.084       .  S
C740        C741   1.410       .  A
C741        C742   1.398       .  A
C741        O745   1.372       .  S
C742        H746   1.084       .  S
O743        H748   0.992       .  S
O745        H749   0.992       .  S
C751        C752   1.402       .  A
C751        C756   1.396       .  A
C751        H761   1.084       .  S
C752        C757   1.485   1_655  S
C752        C753   1.409   1_556  A
C753        C754   1.408       .  A
C753        O758   1.371       .  S
C754        C755   1.405   1_554  A
C754        H759   1.083       .  S
C755        C756   1.411       .  A
C756        O760   1.373       .  S
C757        C762   1.404   1_556  A
C757        C766   1.406       .  A
O758        H774   0.992       .  S
O760        H771   0.992       .  S
C762        C763   1.394       .  A
C762        O767   1.373       .  S
C763        C764   1.409   1_554  A
C763        H768   1.083       .  S
C764        C765   1.415       .  A
C765        C766   1.410       .  A
C765        O769   1.371       .  S
C766        H770   1.083       .  S
O767        H772   0.992   1_554  S
O769        H773   0.992       .  S
C775        C776   1.401   1_554  A
C775        C780   1.396       .  A
C775        H785   1.084       .  S
C776        C781   1.484       .  S
C776        C777   1.409       .  A
C777        C778   1.408       .  A
C777        O782   1.371       .  S
C778        C779   1.407       .  A
C778        H783   1.083       .  S
C779        C780   1.411   1_556  A
C780        O784   1.372       .  S
C781        C786   1.405       .  A
C781        C790   1.405   1_556  A
O782        H798   0.992       .  S
O784        H795   0.992       .  S
C786        C787   1.397       .  A
C786        O791   1.373       .  S
C787        C788   1.407       .  A
C787        H792   1.084       .  S
C788        C789   1.414   1_556  A
C789        C790   1.408       .  A
C789        O793   1.371       .  S
C790        H794   1.083       .  S
O791        H796   0.992       .  S
O793        H797   0.992       .  S
C799        C800   1.400   1_556  A
C799        C804   1.397       .  A
C799        H809   1.084       .  S
C800        C805   1.476       .  S
C800        C801   1.407       .  A
C801        C802   1.405       .  A
C801        O806   1.371       .  S
C802        C803   1.405   1_554  A
C802        H807   1.084       .  S
C803        C804   1.409       .  A
C804        O808   1.372       .  S
C805        C810   1.404       .  A
C805        C814   1.402   1_554  A
O806        H822   0.992       .  S
O808        H819   0.992       .  S
C810        C811   1.396       .  A
C810        O815   1.372       .  S
C811        C812   1.406       .  A
C811        H816   1.084       .  S
C812        C813   1.413   1_554  A
C813        C814   1.405       .  A
C813        O817   1.370       .  S
C814        H818   1.083       .  S
O815        H820   0.992       .  S
O817        H821   0.992       .  S
C823        C824   1.401       .  A
C823        C828   1.404       .  A
C823        H833   1.083       .  S
C824        C829   1.472       .  S
C824        C825   1.404   1_554  A
C825        C826   1.393       .  A
C825        O830   1.373       .  S
C826        C827   1.405       .  A
C826        H831   1.084       .  S
C827        C828   1.413   1_556  A
C828        O832   1.370       .  S
C829        C834   1.405       .  A
C829        C838   1.402   1_554  A
O830        H846   0.992       .  S
O832        H843   0.992       .  S
C834        C835   1.392       .  A
C834        O839   1.372       .  S
C835        C836   1.403       .  A
C835        H840   1.084       .  S
C836        C837   1.410   1_554  A
C837        C838   1.403       .  A
C837        O841   1.370       .  S
C838        H842   1.083       .  S
O839        H844   0.992       .  S
O841        H845   0.992       .  S
C847        C848   1.402       .  A
C847        C852   1.401       .  A
C847        H857   1.084       .  S
C848        C853   1.484       .  S
C848        C849   1.410       .  A
C849        C850   1.401       .  A
C849        O854   1.373       .  S
C850        C851   1.402       .  A
C850        H855   1.084       .  S
C851        C852   1.411       .  A
C852        O856   1.370       .  S
C853        C858   1.408       .  A
C853        C862   1.404       .  A
O854        H870   0.992       .  S
O856        H867   0.992       .  S
C858        C859   1.397       .  A
C858        O863   1.372       .  S
C859        C860   1.406       .  A
C859        H864   1.084       .  S
C860        C861   1.414       .  A
C861        C862   1.403       .  A
C861        O865   1.372       .  S
C862        H866   1.084       .  S
O863        H868   0.992       .  S
O865        H869   0.992       .  S
C871        C872   1.403       .  A
C871        C876   1.399       .  A
C871        H881   1.083       .  S
C872        C877   1.479       .  S
C872        C873   1.408       .  A
C873        C874   1.396       .  A
C873        O878   1.372       .  S
C874        C875   1.403       .  A
C874        H879   1.082       .  S
C875        C876   1.410       .  A
C876        O880   1.372       .  S
C877        C882   1.409       .  A
C877        C886   1.401       .  A
O878        H894   0.992       .  S
O880        H891   0.992       .  S
C882        C883   1.400       .  A
C882        O887   1.372       .  S
C883        C884   1.404       .  A
C883        H888   1.084       .  S
C884        C885   1.413       .  A
C885        C886   1.396       .  A
C885        O889   1.372       .  S
C886        H890   1.084       .  S
O887        H892   0.992       .  S
O889        H893   0.992       .  S
C895        C896   1.404       .  A
C895        C900   1.402       .  A
C895        H905   1.083       .  S
C896        C901   1.487       .  S
C896        C897   1.411       .  A
C897        C898   1.398       .  A
C897        O902   1.372       .  S
C898        C899   1.403       .  A
C898        H903   1.084       .  S
C899        C900   1.413       .  A
C900        O904   1.372       .  S
C901        C906   1.410       .  A
C901        C910   1.404       .  A
O902        H918   0.992       .  S
O904        H915   0.992       .  S
C906        C907   1.402       .  A
C906        O911   1.372       .  S
C907        C908   1.405       .  A
C907        H912   1.082       .  S
C908        C909   1.411       .  A
C909        C910   1.399       .  A
C909        O913   1.371       .  S
C910        H914   1.084       .  S
O911        H916   0.992       .  S
O913        H917   0.992       .  S
C919        C920   1.403       .  A
C919        C924   1.401       .  A
C919        H929   1.083       .  S
C920        C925   1.482       .  S
C920        C921   1.406       .  A
C921        C922   1.396       .  A
C921        O926   1.372       .  S
C922        C923   1.409       .  A
C922        H927   1.083       .  S
C923        C924   1.415       .  A
C924        O928   1.372       .  S
C925        C930   1.409       .  A
C925        C934   1.402       .  A
O926        H942   0.992       .  S
O928        H939   0.992       .  S
C930        C931   1.402       .  A
C930        O935   1.372       .  S
C931        C932   1.405       .  A
C931        H936   1.084       .  S
C932        C933   1.410       .  A
C933        C934   1.397       .  A
C933        O937   1.372       .  S
C934        H938   1.084       .  S
O935        H940   0.992       .  S
O937        H941   0.992       .  S
C943        C944   1.398       .  A
C943        C948   1.393       .  A
C943        H953   1.084       .  S
C944        C949   1.473       .  S
C944        C945   1.407       .  A
C945        C946   1.401       .  A
C945        O950   1.371       .  S
C946        C947   1.405       .  A
C946        H951   1.083       .  S
C947        C948   1.414       .  A
C948        O952   1.372       .  S
C949        C954   1.405       .  A
C949        C958   1.399       .  A
O950        H966   0.992       .  S
O952        H963   0.992       .  S
C954        C955   1.398       .  A
C954        O959   1.372       .  S
C955        C956   1.406       .  A
C955        H960   1.083       .  S
C956        C957   1.416       .  A
C957        C958   1.396       .  A
C957        O961   1.372       .  S
C958        H962   1.084       .  S
O959        H964   0.992       .  S
O961        H965   0.992       .  S
C967        C968   1.405       .  A
C967        C972   1.398       .  A
C967        H977   1.083       .  S
C968        C973   1.484       .  S
C968        C969   1.409       .  A
C969        C970   1.400       .  A
C969        O974   1.372       .  S
C970        C971   1.406       .  A
C970        H975   1.084       .  S
C971        C972   1.408       .  A
C972        O976   1.372       .  S
C973        C978   1.407       .  A
C973        C982   1.403       .  A
O974        H990   0.992       .  S
O976        H987   0.992       .  S
C978        C979   1.399       .  A
C978        O983   1.373       .  S
C979        C980   1.406       .  A
C979        H984   1.083       .  S
C980        C981   1.415       .  A
C981        C982   1.401       .  A
C981        O985   1.372       .  S
C982        H986   1.084       .  S
O983        H988   0.992       .  S
O985        H989   0.992       .  S
C991        C992   1.405       .  A
C991        C996   1.398       .  A
C991       H1001   1.083       .  S
C992        C997   1.482       .  S
C992        C993   1.411       .  A
C993        C994   1.395       .  A
C993        O998   1.372       .  S
C994        C995   1.401       .  A
C994        H999   1.084       .  S
C995        C996   1.407       .  A
C996       O1000   1.372       .  S
C997       C1002   1.407       .  A
C997       C1006   1.404       .  A
O998       H1014   0.992       .  S
O1000      H1011   0.992       .  S
C1002      C1003   1.397       .  A
C1002      O1007   1.373       .  S
C1003      C1004   1.406       .  A
C1003      H1008   1.082       .  S
C1004      C1005   1.412       .  A
C1005      C1006   1.397       .  A
C1005      O1009   1.372       .  S
C1006      H1010   1.083       .  S
O1007      H1012   0.992       .  S
O1009      H1013   0.992       .  S
C1015      C1016   1.403       .  A
C1015      C1020   1.401       .  A
C1015      H1025   1.083       .  S
C1016      C1021   1.481       .  S
C1016      C1017   1.407       .  A
C1017      C1018   1.395       .  A
C1017      O1022   1.372       .  S
C1018      C1019   1.407       .  A
C1018      H1023   1.083       .  S
C1019      C1020   1.414       .  A
C1020      O1024   1.372       .  S
C1021      C1026   1.408       .  A
C1021      C1030   1.402       .  A
O1022      H1038   0.992       .  S
O1024      H1035   0.992       .  S
C1026      C1027   1.400       .  A
C1026      O1031   1.372       .  S
C1027      C1028   1.405       .  A
C1027      H1032   1.084       .  S
C1028      C1029   1.412       .  A
C1029      C1030   1.397       .  A
C1029      O1033   1.372       .  S
C1030      H1034   1.084       .  S
O1031      H1036   0.992       .  S
O1033      H1037   0.992       .  S
C1039      C1040   1.399       .  A
C1039      C1044   1.395       .  A
C1039      H1049   1.083       .  S
C1040      C1045   1.482       .  S
C1040      C1041   1.408       .  A
C1041      C1042   1.402       .  A
C1041      O1046   1.372       .  S
C1042      C1043   1.409       .  A
C1042      H1047   1.083       .  S
C1043      C1044   1.418       .  A
C1044      O1048   1.372       .  S
C1045      C1050   1.408       .  A
C1045      C1054   1.404       .  A
O1046      H1062   0.992       .  S
O1048      H1059   0.992       .  S
C1050      C1051   1.399       .  A
C1050      O1055   1.373       .  S
C1051      C1052   1.404       .  A
C1051      H1056   1.084       .  S
C1052      C1053   1.411       .  A
C1053      C1054   1.401       .  A
C1053      O1057   1.372       .  S
C1054      H1058   1.084       .  S
O1055      H1060   0.992       .  S
O1057      H1061   0.992       .  S
C1063      C1064   1.402       .  A
C1063      C1068   1.398       .  A
C1063      H1073   1.083       .  S
C1064      C1069   1.480       .  S
C1064      C1065   1.410       .  A
C1065      C1066   1.398       .  A
C1065      O1070   1.372       .  S
C1066      C1067   1.403       .  A
C1066      H1071   1.084       .  S
C1067      C1068   1.411       .  A
C1068      O1072   1.371       .  S
C1069      C1074   1.409       .  A
C1069      C1078   1.403       .  A
O1070      H1086   0.992       .  S
O1072      H1083   0.992       .  S
C1074      C1075   1.399       .  A
C1074      O1079   1.372       .  S
C1075      C1076   1.404       .  A
C1075      H1080   1.084       .  S
C1076      C1077   1.410       .  A
C1077      C1078   1.397       .  A
C1077      O1081   1.372       .  S
C1078      H1082   1.084       .  S
O1079      H1084   0.992       .  S
O1081      H1085   0.992       .  S
C1087      C1088   1.401       .  A
C1087      C1092   1.394       .  A
C1087      H1097   1.083       .  S
C1088      C1093   1.474       .  S
C1088      C1089   1.409       .  A
C1089      C1090   1.396       .  A
C1089      O1094   1.372       .  S
C1090      C1091   1.403       .  A
C1090      H1095   1.084       .  S
C1091      C1092   1.409       .  A
C1092      O1096   1.372       .  S
C1093      C1098   1.408       .  A
C1093      C1102   1.400       .  A
O1094      H1110   0.992       .  S
O1096      H1107   0.992       .  S
C1098      C1099   1.398       .  A
C1098      O1103   1.373       .  S
C1099      C1100   1.405       .  A
C1099      H1104   1.084       .  S
C1100      C1101   1.412       .  A
C1101      C1102   1.393       .  A
C1101      O1105   1.372       .  S
C1102      H1106   1.084       .  S
O1103      H1108   0.992       .  S
O1105      H1109   0.992       .  S
C1111      C1112   1.403       .  A
C1111      C1116   1.399       .  A
C1111      H1121   1.084       .  S
C1112      C1117   1.482       .  S
C1112      C1113   1.408       .  A
C1113      C1114   1.400       .  A
C1113      O1118   1.372       .  S
C1114      C1115   1.404       .  A
C1114      H1119   1.082       .  S
C1115      C1116   1.411       .  A
C1116      O1120   1.372       .  S
C1117      C1122   1.408       .  A
C1117      C1126   1.405       .  A
O1118      H1134   0.992       .  S
O1120      H1131   0.992       .  S
C1122      C1123   1.398       .  A
C1122      O1127   1.372       .  S
C1123      C1124   1.406       .  A
C1123      H1128   1.084       .  S
C1124      C1125   1.408       .  A
C1125      C1126   1.399       .  A
C1125      O1129   1.372       .  S
C1126      H1130   1.084       .  S
O1127      H1132   0.992       .  S
O1129      H1133   0.992       .  S
C1135      C1136   1.398       .  A
C1135      C1140   1.394       .  A
C1135      H1145   1.084       .  S
C1136      C1141   1.479       .  S
C1136      C1137   1.408       .  A
C1137      C1138   1.404       .  A
C1137      O1142   1.371       .  S
C1138      C1139   1.407       .  A
C1138      H1143   1.083       .  S
C1139      C1140   1.415       .  A
C1140      O1144   1.372       .  S
C1141      C1146   1.407       .  A
C1141      C1150   1.401       .  A
O1142      H1158   0.992       .  S
O1144      H1155   0.992       .  S
C1146      C1147   1.400       .  A
C1146      O1151   1.372       .  S
C1147      C1148   1.406       .  A
C1147      H1152   1.083       .  S
C1148      C1149   1.415       .  A
C1149      C1150   1.399       .  A
C1149      O1153   1.372       .  S
C1150      H1154   1.084       .  S
O1151      H1156   0.992       .  S
O1153      H1157   0.992       .  S
C1159      C1160   1.399       .  A
C1159      C1164   1.392       .  A
C1159      H1169   1.084       .  S
C1160      C1165   1.474       .  S
C1160      C1161   1.407       .  A
C1161      C1162   1.403       .  A
C1161      O1166   1.372       .  S
C1162      C1163   1.406       .  A
C1162      H1167   1.084       .  S
C1163      C1164   1.413       .  A
C1164      O1168   1.372       .  S
C1165      C1170   1.404       .  A
C1165      C1174   1.401       .  A
O1166      H1182   0.992       .  S
O1168      H1179   0.992       .  S
C1170      C1171   1.398       .  A
C1170      O1175   1.372       .  S
C1171      C1172   1.409       .  A
C1171      H1176   1.083       .  S
C1172      C1173   1.414       .  A
C1173      C1174   1.397       .  A
C1173      O1177   1.371       .  S
C1174      H1178   1.084       .  S
O1175      H1180   0.992       .  S
O1177      H1181   0.992       .  S
C1183      C1184   1.405       .  A
C1183      C1188   1.399       .  A
C1183      H1193   1.083       .  S
C1184      C1189   1.487       .  S
C1184      C1185   1.412       .  A
C1185      C1186   1.400       .  A
C1185      O1190   1.372       .  S
C1186      C1187   1.403       .  A
C1186      H1191   1.084       .  S
C1187      C1188   1.409       .  A
C1188      O1192   1.372       .  S
C1189      C1194   1.410       .  A
C1189      C1198   1.402       .  A
O1190      H1206   0.992       .  S
O1192      H1203   0.992       .  S
C1194      C1195   1.402       .  A
C1194      O1199   1.373       .  S
C1195      C1196   1.407       .  A
C1195      H1200   1.083       .  S
C1196      C1197   1.416       .  A
C1197      C1198   1.398       .  A
C1197      O1201   1.372       .  S
C1198      H1202   1.083       .  S
O1199      H1204   0.992       .  S
O1201      H1205   0.992       .  S
C1207      C1208   1.398       .  A
C1207      C1212   1.392       .  A
C1207      H1217   1.084       .  S
C1208      C1213   1.479       .  S
C1208      C1209   1.409       .  A
C1209      C1210   1.402       .  A
C1209      O1214   1.371       .  S
C1210      C1211   1.406       .  A
C1210      H1215   1.083       .  S
C1211      C1212   1.416       .  A
C1212      O1216   1.372       .  S
C1213      C1218   1.409       .  A
C1213      C1222   1.401       .  A
O1214      H1230   0.992       .  S
O1216      H1227   0.992       .  S
C1218      C1219   1.398       .  A
C1218      O1223   1.373       .  S
C1219      C1220   1.404       .  A
C1219      H1224   1.084       .  S
C1220      C1221   1.413       .  A
C1221      C1222   1.397       .  A
C1221      O1225   1.372       .  S
C1222      H1226   1.084       .  S
O1223      H1228   0.992       .  S
O1225      H1229   0.991       .  S
C1231      C1232   1.403       .  A
C1231      C1236   1.399       .  A
C1231      H1241   1.083       .  S
C1232      C1237   1.477       .  S
C1232      C1233   1.405       .  A
C1233      C1234   1.393       .  A
C1233      O1238   1.372       .  S
C1234      C1235   1.409       .  A
C1234      H1239   1.083       .  S
C1235      C1236   1.412       .  A
C1236      O1240   1.371       .  S
C1237      C1242   1.407       .  A
C1237      C1246   1.402       .  A
O1238      H1254   0.992       .  S
O1240      H1251   0.992       .  S
C1242      C1243   1.399       .  A
C1242      O1247   1.372       .  S
C1243      C1244   1.405       .  A
C1243      H1248   1.084       .  S
C1244      C1245   1.412       .  A
C1245      C1246   1.395       .  A
C1245      O1249   1.372       .  S
C1246      H1250   1.084       .  S
O1247      H1252   0.992       .  S
O1249      H1253   0.992       .  S
C1255      C1256   1.404       .  A
C1255      C1260   1.400       .  A
C1255      H1265   1.083       .  S
C1256      C1261   1.483       .  S
C1256      C1257   1.410       .  A
C1257      C1258   1.397       .  A
C1257      O1262   1.372       .  S
C1258      C1259   1.403       .  A
C1258      H1263   1.084       .  S
C1259      C1260   1.411       .  A
C1260      O1264   1.372       .  S
C1261      C1266   1.409       .  A
C1261      C1270   1.402       .  A
O1262      H1278   0.992       .  S
O1264      H1275   0.992       .  S
C1266      C1267   1.402       .  A
C1266      O1271   1.372       .  S
C1267      C1268   1.405       .  A
C1267      H1272   1.084       .  S
C1268      C1269   1.413       .  A
C1269      C1270   1.397       .  A
C1269      O1273   1.372       .  S
C1270      H1274   1.084       .  S
O1271      H1276   0.992       .  S
O1273      H1277   0.992       .  S
C1279      C1280   1.405       .  A
C1279      C1284   1.398       .  A
C1279      H1289   1.083       .  S
C1280      C1285   1.482       .  S
C1280      C1281   1.407       .  A
C1281      C1282   1.397       .  A
C1281      O1286   1.372       .  S
C1282      C1283   1.406       .  A
C1282      H1287   1.082       .  S
C1283      C1284   1.409       .  A
C1284      O1288   1.372       .  S
C1285      C1290   1.408       .  A
C1285      C1294   1.404       .  A
O1286      H1302   0.992       .  S
O1288      H1299   0.992       .  S
C1290      C1291   1.398       .  A
C1290      O1295   1.373       .  S
C1291      C1292   1.404       .  A
C1291      H1296   1.084       .  S
C1292      C1293   1.411       .  A
C1293      C1294   1.400       .  A
C1293      O1297   1.372       .  S
C1294      H1298   1.083       .  S
O1295      H1300   0.992       .  S
O1297      H1301   0.992       .  S
C1303      C1304   1.404       .  A
C1303      C1308   1.398       .  A
C1303      H1313   1.084       .  S
C1304      C1309   1.477       .  S
C1304      C1305   1.407       .  A
C1305      C1306   1.398       .  A
C1305      O1310   1.373       .  S
C1306      C1307   1.403       .  A
C1306      H1311   1.081       .  S
C1307      C1308   1.409       .  A
C1308      O1312   1.372       .  S
C1309      C1314   1.408       .  A
C1309      C1318   1.403       .  A
O1310      H1326   0.992       .  S
O1312      H1323   0.992       .  S
C1314      C1315   1.396       .  A
C1314      O1319   1.372       .  S
C1315      C1316   1.404       .  A
C1315      H1320   1.084       .  S
C1316      C1317   1.411       .  A
C1317      C1318   1.398       .  A
C1317      O1321   1.372       .  S
C1318      H1322   1.084       .  S
O1319      H1324   0.992       .  S
O1321      H1325   0.992       .  S
C1327      C1328   1.402       .  A
C1327      C1332   1.397       .  A
C1327      H1337   1.084       .  S
C1328      C1333   1.470       .  S
C1328      C1329   1.404       .  A
C1329      C1330   1.395       .  A
C1329      O1334   1.373       .  S
C1330      C1331   1.405       .  A
C1330      H1335   1.082       .  S
C1331      C1332   1.410       .  A
C1332      O1336   1.372       .  S
C1333      C1338   1.406       .  A
C1333      C1342   1.402       .  A
O1334      H1350   0.992       .  S
O1336      H1347   0.992       .  S
C1338      C1339   1.394       .  A
C1338      O1343   1.372       .  S
C1339      C1340   1.402       .  A
C1339      H1344   1.084       .  S
C1340      C1341   1.409       .  A
C1341      C1342   1.396       .  A
C1341      O1345   1.372       .  S
C1342      H1346   1.084       .  S
O1343      H1348   0.992       .  S
O1345      H1349   0.992       .  S
C1351      C1352   1.401       .  A
C1351      C1356   1.397       .  A
C1351      H1361   1.083       .  S
C1352      C1357   1.481       .  S
C1352      C1353   1.408       .  A
C1353      C1354   1.398       .  A
C1353      O1358   1.372       .  S
C1354      C1355   1.407       .  A
C1354      H1359   1.083       .  S
C1355      C1356   1.416       .  A
C1356      O1360   1.371       .  S
C1357      C1362   1.410       .  A
C1357      C1366   1.405       .  A
O1358      H1374   0.992       .  S
O1360      H1371   0.992       .  S
C1362      C1363   1.396       .  A
C1362      O1367   1.372       .  S
C1363      C1364   1.399       .  A
C1363      H1368   1.081       .  S
C1364      C1365   1.405       .  A
C1365      C1366   1.398       .  A
C1365      O1369   1.372       .  S
C1366      H1370   1.083       .  S
O1367      H1372   0.992       .  S
O1369      H1373   0.992       .  S
C1375      C1376   1.405       .  A
C1375      C1380   1.403       .  A
C1375      H1385   1.084       .  S
C1376      C1381   1.479       .  S
C1376      C1377   1.405       .  A
C1377      C1378   1.395       .  A
C1377      O1382   1.373       .  S
C1378      C1379   1.406       .  A
C1378      H1383   1.084       .  S
C1379      C1380   1.411       .  A
C1380      O1384   1.371       .  S
C1381      C1386   1.407       .  A
C1381      C1390   1.401       .  A
O1382      H1398   0.992       .  S
O1384      H1395   0.992       .  S
C1386      C1387   1.397       .  A
C1386      O1391   1.372       .  S
C1387      C1388   1.407       .  A
C1387      H1392   1.083       .  S
C1388      C1389   1.414       .  A
C1389      C1390   1.400       .  A
C1389      O1393   1.372       .  S
C1390      H1394   1.084       .  S
O1391      H1396   0.992       .  S
O1393      H1397   0.992       .  S
C1399      C1400   1.403       .  A
C1399      C1404   1.402       .  A
C1399      H1409   1.083       .  S
C1400      C1405   1.477       .  S
C1400      C1401   1.405       .  A
C1401      C1402   1.392       .  A
C1401      O1406   1.372       .  S
C1402      C1403   1.406       .  A
C1402      H1407   1.083       .  S
C1403      C1404   1.413       .  A
C1404      O1408   1.372       .  S
C1405      C1410   1.406       .  A
C1405      C1414   1.401       .  A
O1406      H1422   0.992       .  S
O1408      H1419   0.992       .  S
C1410      C1411   1.400       .  A
C1410      O1415   1.372       .  S
C1411      C1412   1.408       .  A
C1411      H1416   1.084       .  S
C1412      C1413   1.412       .  A
C1413      C1414   1.395       .  A
C1413      O1417   1.371       .  S
C1414      H1418   1.084       .  S
O1415      H1420   0.992       .  S
O1417      H1421   0.992       .  S
