geometry optimzed in LAMMPS
_audit_creation_date              2020-11-30 
_audit_creation_method            'lammps2cif' 
_symmetry_space_group_name_H-M    'P1' 
_symmetry_Int_Tables_number       1 
_symmetry_cell_setting            triclinic 
loop_ 
_symmetry_equiv_pos_as_xyz 
  x,y,z 
_cell_length_a                    30.01918069 
_cell_length_b                    30.10114195423073 
_cell_length_c                    48.346510879781384 
_cell_angle_alpha                 89.7296374193254 
_cell_angle_beta                  88.82164013777152 
_cell_angle_gamma                 119.88998868339475 
loop_ 
_atom_site_label 
_atom_site_type_symbol 
_atom_site_fract_x 
_atom_site_fract_y 
_atom_site_fract_z 
_atom_site_charge 
O1          O  0.42631524  0.04488419  0.30298123    -0.75600
O2          O  0.44367339  0.98796041  0.32406283    -0.54500
C3          C  0.42986169  0.02185289  0.32499214     0.78100
O4          O  0.36169923  0.88752904  0.18376513    -0.60200
O5          O  0.42916466  0.95118632  0.15957005    -0.53200
C6          C  0.38422340  0.91204650  0.16105487     0.70100
O7          O  0.34356984  0.87869196  0.27956937    -0.74800
O8          O  0.40743581  0.87941081  0.30152219    -0.55300
C9          C  0.36327946  0.87465648  0.30210378     0.76100
O10         O  0.42035556  0.07207982  0.20682974    -0.59900
O11         O  0.45554180  0.04697440  0.17248680    -0.53000
C12         C  0.43102055  0.06876408  0.18102447     0.72700
Zr13       Zr  0.43956319  0.04290855  0.25147423     2.54700
O14         O  0.35651364  0.03682133  0.26015645    -0.80500
O15         O  0.47936154  0.13544585  0.25597358    -0.93900
Zr16       Zr  0.38516956  0.89326041  0.23323486     2.64700
O17         O  0.29196523  0.84832806  0.22934407    -0.98900
O18         O  0.36793499  0.80512260  0.23273584    -0.80900
O19         O  0.41406648  0.95999196  0.26369930    -0.84300
O20         O  0.41078852  0.97752387  0.21733478    -2.19000
O21         O  0.62499499  0.09420475  0.19922608    -0.67700
O22         O  0.55579291  0.08250760  0.17734265    -0.52200
C23         C  0.60224286  0.09282221  0.17658950     0.71100
O24         O  0.55697847  0.90211562  0.27581781    -0.60600
O25         O  0.50296679  0.90611621  0.30800768    -0.52500
C26         C  0.53806716  0.89657437  0.30086903     0.72900
O27         O  0.55068105  0.92340183  0.17769087    -0.72000
O28         O  0.53176638  0.98072659  0.15873463    -0.50600
C29         C  0.54866424  0.94984600  0.15673843     0.74300
O30         O  0.60771672  0.06759837  0.29604947    -0.67300
O31         O  0.54191586  0.00354789  0.32070948    -0.54500
C32         C  0.58687299  0.04273194  0.31900044     0.72700
Zr33       Zr  0.58485909  0.06609057  0.24674213     2.77500
O34         O  0.67527844  0.09184414  0.25096129    -0.98000
O35         O  0.61113149  0.15642854  0.25081536    -0.78900
Zr36       Zr  0.52995151  0.91740796  0.22932459     2.70100
O37         O  0.60802359  0.91275223  0.22174627    -0.80100
O38         O  0.48804543  0.82474012  0.22482904    -0.99200
Zr39       Zr  0.47816801  0.95973296  0.28738858     2.21500
Zr40       Zr  0.48951622  0.00053751  0.19350751     2.11100
O41         O  0.56260021  0.00180949  0.21283827    -2.47900
O42         O  0.54885446  0.98186497  0.25998523    -0.79900
O43         O  0.51273383  0.05933327  0.22712172    -0.72100
O44         O  0.45340506  0.89042137  0.25615431    -2.33100
O45         O  0.51077524  0.04713281  0.27475726    -2.29300
O46         O  0.46205253  0.92035615  0.21022613    -0.73900
H47         H  0.38449807  0.97674441  0.20583592     0.78100
H48         H  0.44333094  0.85747884  0.26460123     0.79200
H49         H  0.59051834  0.00813061  0.20030013     0.81400
H50         H  0.52005656  0.06935642  0.29050849     0.79100
H51         H  0.34700358  0.78920373  0.24981184     0.42100
H52         H  0.49825186  0.81961683  0.20603619     0.41100
H53         H  0.63063855  0.94292808  0.20986318     0.40700
H54         H  0.68075238  0.06946247  0.23805299     0.38700
H55         H  0.64434047  0.17479255  0.24040306     0.41800
H56         H  0.51139859  0.14969865  0.24452625     0.36600
H57         H  0.33400971  0.00139770  0.26723864     0.42700
H58         H  0.28424652  0.87390924  0.22121578     0.39100
H59         H  0.69429894  0.12637421  0.24218922     0.44000
H60         H  0.49110406  0.14209309  0.27528002     0.42800
H61         H  0.28409107  0.82274783  0.21469583     0.42900
H62         H  0.50696651  0.81431108  0.23741004     0.43300
O63         O  0.10310743  0.64392089  0.28902486    -0.75600
O64         O  0.09578316  0.58098391  0.31737279    -0.54500
C65         C  0.10638144  0.62679133  0.31319016     0.78100
O66         O  0.90816417  0.55071130  0.21329791    -0.60200
O67         O  0.94159279  0.52009925  0.18115853    -0.53200
C68         C  0.91568972  0.54133039  0.18791484     0.70100
O69         O  0.93919513  0.55801314  0.30994468    -0.74800
O70         O  0.99761058  0.54351066  0.33111438    -0.55300
C71         C  0.96444088  0.55792558  0.33149613     0.76100
O72         O  0.09165598  0.62471320  0.19055264    -0.59900
O73         O  0.03369278  0.55210045  0.16950463    -0.53000
C74         C  0.06786466  0.59897448  0.16887871     0.72700
Zr75       Zr  0.08898003  0.60516876  0.24159501     2.54700
O76         O  0.10628053  0.69256945  0.23459660    -0.80500
O77         O  0.18214748  0.64411921  0.23854777    -0.93900
Zr78       Zr  0.93758687  0.53694073  0.25958154     2.64700
O79         O  0.94237173  0.61982634  0.26407467    -0.98900
O80         O  0.84496855  0.49482043  0.26767250    -0.80900
O81         O  0.02073049  0.56868073  0.27200753    -0.84300
O82         O  0.00466180  0.56920467  0.22530430    -2.19000
O83         O  0.08693790  0.44906877  0.19333953    -0.67700
O84         O  0.02800660  0.46141161  0.17095879    -0.52200
C85         C  0.06334060  0.44971007  0.17139729     0.71100
O86         O  0.92465863  0.37339940  0.30965007    -0.60600
O87         O  0.98338067  0.44435211  0.33193998    -0.52500
C88         C  0.94759243  0.39757391  0.33173921     0.72900
O89         O  0.90779982  0.35731214  0.21266066    -0.72000
O90         O  0.91150587  0.42364228  0.19117035    -0.50600
C91         C  0.90787839  0.38026924  0.18997900     0.74300
O92         O  0.08091274  0.43044274  0.29033414    -0.67300
O93         O  0.09817712  0.50126892  0.31148314    -0.54500
C94         C  0.08997788  0.45616942  0.31275486     0.72700
Zr95       Zr  0.08128515  0.46555520  0.24331468     2.77500
O96         O  0.10172000  0.39711470  0.23776079    -0.98000
O97         O  0.17473629  0.51532763  0.24434658    -0.78900
Zr98       Zr  0.92842988  0.39680636  0.25969993     2.70100
O99         O  0.90353329  0.30734359  0.26773319    -0.80100
O100        O  0.83644382  0.36573232  0.26274019    -0.99200
Zr101      Zr  0.02779068  0.50924212  0.29720491     2.21500
Zr102      Zr  0.99147911  0.49222744  0.20469827     2.11100
O103        O  0.99710910  0.42366314  0.22594026    -2.47900
O104        O  0.01218302  0.43889025  0.27310105    -0.79900
O105        O  0.07132187  0.52871626  0.22206130    -0.72100
O106        O  0.93973313  0.46977725  0.28516773    -2.33100
O107        O  0.10016024  0.54287615  0.26604316    -2.29300
O108        O  0.92934045  0.46534527  0.23806847    -0.73900
H109        H  0.00305979  0.59355143  0.21290779     0.78100
H110        H  0.91690433  0.45962301  0.30122898     0.79200
H111        H  0.99490466  0.39730969  0.21381220     0.81400
H112        H  0.13359900  0.55944966  0.27426243     0.79100
H113        H  0.83097889  0.46334324  0.25656669     0.42100
H114        H  0.82041148  0.32793476  0.26352640     0.41100
H115        H  0.93614278  0.30792548  0.27140317     0.40700
H116        H  0.07374887  0.37100718  0.22656757     0.38700
H117        H  0.18298749  0.51066513  0.26349598     0.41800
H118        H  0.19466447  0.68041861  0.23343143     0.36600
H119        H  0.07186486  0.68949637  0.23475136     0.42700
H120        H  0.97934135  0.64437517  0.26650456     0.39100
H121        H  0.13260118  0.41167845  0.22535561     0.44000
H122        H  0.18880862  0.62934332  0.22178529     0.42800
H123        H  0.93511317  0.62824545  0.24549325     0.42900
H124        H  0.83064091  0.37496735  0.28157065     0.43300
O125        O  0.53477426  0.65320514  0.29629068    -0.75600
O126        O  0.47501244  0.58327232  0.31732994    -0.54500
C127        C  0.51275756  0.62825884  0.31882409     0.78100
O128        O  0.38037910  0.44626410  0.19915430    -0.60200
O129        O  0.45558466  0.47130887  0.17559804    -0.53200
C130        C  0.40683436  0.45103220  0.17656106     0.70100
O131        O  0.35186066  0.44920236  0.29592412    -0.74800
O132        O  0.41377264  0.48442407  0.32815669    -0.55300
C133        C  0.36698021  0.45973141  0.32128455     0.76100
O134        O  0.53614102  0.63857595  0.19980582    -0.59900
O135        O  0.53383399  0.57181770  0.17658926    -0.53000
C136        C  0.53795675  0.61596992  0.17746800     0.72700
Zr137      Zr  0.52018208  0.61385375  0.24961599     2.54700
O138        O  0.45543252  0.63998129  0.24793106    -0.80500
O139        O  0.58509176  0.70378197  0.24280263    -0.93900
Zr140      Zr  0.39752316  0.46910989  0.24926419     2.64700
O141        O  0.34973919  0.51377067  0.24174423    -0.98900
O142        O  0.31563641  0.39043211  0.24465301    -0.80900
O143        O  0.45531551  0.54182938  0.27141732    -0.84300
O144        O  0.46434324  0.53967212  0.22372076    -2.19000
O145        O  0.64990119  0.59607677  0.21711387    -0.67700
O146        O  0.60197710  0.52334963  0.19674976    -0.52200
C147        C  0.63519015  0.56990829  0.19482452     0.71100
O148        O  0.48294927  0.39227708  0.31365941    -0.60600
O149        O  0.48469173  0.45810040  0.33765875    -0.52500
C150        C  0.48152620  0.41451964  0.33623269     0.72900
O151        O  0.46796394  0.37340140  0.21596647    -0.72000
O152        O  0.51555862  0.43797878  0.18555179    -0.50600
C153        C  0.48509329  0.39094565  0.19107746     0.74300
O154        O  0.62969538  0.56851364  0.31503616    -0.67300
O155        O  0.55638492  0.55422651  0.33741912    -0.54500
C156        C  0.60364809  0.56671825  0.33729792     0.72700
Zr157      Zr  0.61403151  0.55677121  0.26388002     2.77500
O158        O  0.66703642  0.51652383  0.26104553    -0.98000
O159        O  0.69681175  0.63226383  0.27241527    -0.78900
Zr160      Zr  0.49123305  0.41204755  0.26327495     2.70100
O161        O  0.55309114  0.38202826  0.26238709    -0.80100
O162        O  0.43079602  0.32136621  0.27162762    -0.99200
Zr163      Zr  0.49256712  0.51753943  0.30373454     2.21500
Zr164      Zr  0.51875728  0.50696407  0.20961714     2.11100
O165        O  0.56283910  0.47905727  0.23943724    -2.47900
O166        O  0.54248533  0.48890408  0.28413928    -0.79900
O167        O  0.56775308  0.57780253  0.23477878    -0.72100
O168        O  0.43523677  0.43916670  0.28207523    -2.33100
O169        O  0.56405813  0.59043302  0.28247522    -2.29300
O170        O  0.45396558  0.44356782  0.23480808    -0.73900
H171        H  0.45036740  0.54838258  0.20815966     0.78100
H172        H  0.41045546  0.41295022  0.29456125     0.79200
H173        H  0.58242741  0.46475174  0.23117750     0.81400
H174        H  0.58610413  0.61715234  0.29478330     0.79100
H175        H  0.32502690  0.36397191  0.24035757     0.42100
H176        H  0.39838778  0.31559600  0.26347544     0.41100
H177        H  0.55030208  0.36736924  0.28114453     0.40700
H178        H  0.70228156  0.54520701  0.25711887     0.38700
H179        H  0.69197667  0.66159466  0.26767845     0.41800
H180        H  0.61618069  0.70697570  0.25141203     0.36600
H181        H  0.47372673  0.67642832  0.25329360     0.42700
H182        H  0.37070874  0.54118171  0.22798049     0.39100
H183        H  0.66786019  0.50570588  0.28030917     0.44000
H184        H  0.57401788  0.72278167  0.25519105     0.42800
H185        H  0.31926998  0.48909764  0.23145536     0.42900
H186        H  0.44303071  0.30331881  0.25925371     0.43300
O187        O  0.78694390  0.43428200  0.01812378    -0.75600
O188        O  0.87220744  0.48785932  0.01005610    -0.54500
C189        C  0.83264918  0.44209238  0.01376386     0.78100
O190        O  0.73563639  0.61261602  0.44756779    -0.60200
O191        O  0.65997246  0.56912157  0.46985458    -0.53200
C192        C  0.68673995  0.59132497  0.44767150     0.70100
O193        O  0.85808184  0.57926774  0.43516026    -0.74800
O194        O  0.91429776  0.57509541  0.46435799    -0.55300
C195        C  0.90050112  0.58083589  0.44000512     0.76100
O196        O  0.64165859  0.42919922  0.51900232    -0.59900
O197        O  0.61066164  0.48419978  0.51772197    -0.53000
C198        C  0.60401478  0.43791264  0.51865936     0.72700
Zr199      Zr  0.73259938  0.47190902  0.02058970     2.54700
O200        O  0.70323949  0.40404465  0.47980775    -0.80500
O201        O  0.70473810  0.41790877  0.06223141    -0.93900
Zr202      Zr  0.78037127  0.56649460  0.45690433     2.64700
O203        O  0.72347536  0.48866153  0.43233618    -0.98900
O204        O  0.79320820  0.59206737  0.40822082    -0.80900
O205        O  0.80067945  0.51395231  0.48437040    -0.84300
O206        O  0.71064521  0.51345173  0.48701587    -2.19000
O207        O  0.73949910  0.61980923  0.08745086    -0.67700
O208        O  0.66844055  0.59072710  0.06116518    -0.52200
C209        C  0.69336618  0.60960552  0.08363168     0.71100
O210        O  0.93848306  0.71857886  0.50400643    -0.60600
O211        O  0.95200694  0.65378315  0.00610159    -0.52500
C212        C  0.96886326  0.70209735  0.00220339     0.72900
O213        O  0.77811687  0.71686091  0.50442349    -0.72000
O214        O  0.69625411  0.64910127  0.51063852    -0.50600
C215        C  0.72795600  0.69714340  0.50606701     0.74300
O216        O  0.88604581  0.62738528  0.07216737    -0.67300
O217        O  0.90806935  0.57232778  0.05600707    -0.54500
C218        C  0.90306568  0.59696534  0.07642048     0.72700
Zr219      Zr  0.79480026  0.59104307  0.06840961     2.77500
O220        O  0.82476686  0.63037281  0.11325839    -0.98000
O221        O  0.76276485  0.51902387  0.10094909    -0.78900
Zr222      Zr  0.84079085  0.68183414  0.50834194     2.70100
O223        O  0.87580401  0.75718411  0.03651025    -0.80100
O224        O  0.86983955  0.74146770  0.46907727    -0.99200
Zr225      Zr  0.87311057  0.57263185  0.01015225     2.21500
Zr226      Zr  0.69508686  0.56898559  0.51560456     2.11100
O227        O  0.77312025  0.63791153  0.03707097    -2.47900
O228        O  0.86143209  0.63617865  0.03480192    -0.79900
O229        O  0.71808651  0.52932811  0.04741425    -0.72100
O230        O  0.85434511  0.62234560  0.48193350    -2.33100
O231        O  0.80632120  0.52840776  0.04465181    -2.29300
O232        O  0.76612241  0.62245789  0.48469205    -0.73900
H233        H  0.68047834  0.49130124  0.47671802     0.78100
H234        H  0.88281804  0.64354632  0.46951431     0.79200
H235        H  0.76770426  0.66352725  0.04594511     0.81400
H236        H  0.81442198  0.50870684  0.05730990     0.79100
H237        H  0.81486799  0.62988479  0.40823743     0.42100
H238        H  0.89612555  0.77450441  0.47669136     0.41100
H239        H  0.84515782  0.75633562  0.04510192     0.40700
H240        H  0.83253156  0.66624257  0.11084033     0.38700
H241        H  0.72740431  0.51129331  0.10588611     0.41800
H242        H  0.73367156  0.41229235  0.06655174     0.36600
H243        H  0.73309843  0.41595236  0.46682995     0.42700
H244        H  0.70074492  0.49745730  0.42194328     0.39100
H245        H  0.79440764  0.61426148  0.12603085     0.44000
H246        H  0.67723098  0.38413287  0.05607172     0.42800
H247        H  0.74576282  0.48564439  0.41797312     0.42900
H248        H  0.88951927  0.73057919  0.45695797     0.43300
O249        O  0.63928488  0.20705992  0.00344089    -0.75600
O250        O  0.60794766  0.12167608  0.99932134    -0.54500
C251        C  0.60148569  0.16102125  0.00212040     0.78100
O252        O  0.88796883  0.26641285  0.44569460    -0.60200
O253        O  0.91391133  0.33993923  0.46645127    -0.53200
C254        C  0.90926873  0.31488228  0.44416538     0.70100
O255        O  0.73146095  0.14853445  0.42260545    -0.74800
O256        O  0.66205518  0.09549183  0.44957797    -0.55300
C257        C  0.68527339  0.11169534  0.42571257     0.76100
O258        O  0.78792249  0.34979882  0.50989397    -0.59900
O259        O  0.87338827  0.37982556  0.51294790    -0.53000
C260        C  0.83411991  0.38705300  0.51198809     0.72700
Zr261      Zr  0.73078538  0.26328316  0.00470353     2.54700
O262        O  0.70444102  0.29784228  0.47066609    -0.80500
O263        O  0.69202190  0.29217704  0.03987790    -0.93900
Zr264      Zr  0.79589783  0.21856254  0.44759160     2.64700
O265        O  0.78462270  0.28009503  0.42003577    -0.98900
O266        O  0.82393579  0.20771779  0.40175379    -0.80900
O267        O  0.71845718  0.19702096  0.47225203    -0.84300
O268        O  0.80654168  0.28368061  0.47863284    -2.19000
O269        O  0.84657756  0.25071057  0.08535136    -0.67700
O270        O  0.89954716  0.32135089  0.05904810    -0.52200
C271        C  0.88506098  0.29564882  0.08230275     0.71100
O272        O  0.77910854  0.05353949  0.49650880    -0.60600
O273        O  0.69787368  0.04585592  0.99542432    -0.52500
C274        C  0.72992816  0.02907429  0.99526087     0.72900
O275        O  0.93797947  0.21265633  0.50086088    -0.72000
O276        O  0.95043130  0.29307019  0.50874340    -0.50600
C277        C  0.96777975  0.26228374  0.50421896     0.74300
O278        O  0.71833197  0.10435923  0.06115162    -0.67300
O279        O  0.64510796  0.08135827  0.04128838    -0.54500
C280        C  0.67021406  0.08683749  0.06340470     0.72700
Zr281      Zr  0.77210903  0.19586396  0.06018295     2.77500
O282        O  0.76929475  0.16201331  0.10648052    -0.98000
O283        O  0.71819095  0.21889347  0.08792200    -0.78900
Zr284      Zr  0.83964746  0.15010914  0.50079471     2.70100
O285        O  0.86117524  0.12089999  0.04319578    -0.80100
O286        O  0.87256450  0.12472479  0.46113625    -0.99200
Zr287      Zr  0.69260686  0.12305113  0.99780032     2.21500
Zr288      Zr  0.87146796  0.29466836  0.51040529     2.11100
O289        O  0.84988679  0.22014013  0.03476853    -2.47900
O290        O  0.76041477  0.13243277  0.02779398    -0.79900
O291        O  0.79346083  0.27423003  0.03720138    -0.72100
O292        O  0.77167344  0.14054529  0.47135464    -2.33100
O293        O  0.70683793  0.18794093  0.03064923    -2.29300
O294        O  0.86002220  0.22852243  0.47843198    -0.73900
H295        H  0.81635539  0.31516193  0.46859475     0.78100
H296        H  0.76551226  0.11410860  0.45823428     0.79200
H297        H  0.87756488  0.22492091  0.04646548     0.81400
H298        H  0.67611839  0.17872787  0.04158444     0.79100
H299        H  0.84103440  0.18735141  0.40504116     0.42100
H300        H  0.89735621  0.15738090  0.45171045     0.41100
H301        H  0.83223320  0.11109498  0.05659631     0.40700
H302        H  0.79760851  0.15415390  0.10662170     0.38700
H303        H  0.73800645  0.25677616  0.08855996     0.41800
H304        H  0.72076046  0.31547421  0.05163619     0.36600
H305        H  0.67883950  0.26874875  0.45986301     0.42700
H306        H  0.77802285  0.26605033  0.40114274     0.39100
H307        H  0.77917003  0.19057341  0.11947127     0.44000
H308        H  0.67100483  0.26162434  0.05184319     0.42800
H309        H  0.75121786  0.27574933  0.42659485     0.42900
H310        H  0.89411013  0.11186009  0.46923657     0.43300
O311        O  0.35656516  0.79551311  0.97454950    -0.75600
O312        O  0.38759417  0.88054489  0.98039468    -0.54500
C313        C  0.39447598  0.84140171  0.97701344     0.78100
O314        O  0.10785607  0.73873434  0.42716609    -0.60200
O315        O  0.08658257  0.66211481  0.44370438    -0.53200
C316        C  0.09236447  0.69168488  0.42302222     0.70100
O317        O  0.25987019  0.88191556  0.41570067    -0.74800
O318        O  0.33476513  0.90449130  0.43500743    -0.55300
C319        C  0.30751794  0.89714163  0.41347306     0.76100
O320        O  0.20574465  0.64289580  0.48013335    -0.59900
O321        O  0.12090250  0.61191062  0.48885289    -0.53000
C322        C  0.16003964  0.60513203  0.48493072     0.72700
Zr323      Zr  0.26430212  0.73904630  0.97655702     2.54700
O324        O  0.28705952  0.70475241  0.43476690    -0.80500
O325        O  0.29852170  0.69951325  0.00691074    -0.93900
Zr326      Zr  0.19897390  0.79534971  0.42965136     2.64700
O327        O  0.22375610  0.75688504  0.39245695    -0.98900
O328        O  0.17163789  0.82143277  0.38849689    -0.80900
O329        O  0.27554906  0.80736436  0.45020330    -0.84300
O330        O  0.18873016  0.72061489  0.45312198    -2.19000
O331        O  0.14879477  0.71684970  0.06328800    -0.67700
O332        O  0.08820972  0.66123990  0.03429341    -0.52200
C333        C  0.10608808  0.67700620  0.05860482     0.71100
O334        O  0.21533090  0.93795362  0.49836510    -0.60600
O335        O  0.29577421  0.95558979  0.98924751    -0.52500
C336        C  0.26387520  0.97139834  0.99535800     0.72900
O337        O  0.05709273  0.77873045  0.50118133    -0.72000
O338        O  0.04419192  0.69788989  0.49472703    -0.50600
C339        C  0.02722093  0.72881843  0.49982875     0.74300
O340        O  0.26853508  0.87775474  0.04677441    -0.67300
O341        O  0.34529590  0.90944595  0.02753882    -0.54500
C342        C  0.31665656  0.89794666  0.04944337     0.72700
Zr343      Zr  0.22116599  0.78683621  0.04153312     2.77500
O344        O  0.21066782  0.80439441  0.08972184    -0.98000
O345        O  0.28030717  0.76752003  0.06547490    -0.78900
Zr346      Zr  0.15468788  0.84085993  0.49549705     2.70100
O347        O  0.12681270  0.86540267  0.03831419    -0.80100
O348        O  0.11982482  0.87428917  0.46143833    -0.99200
Zr349      Zr  0.30219826  0.87918094  0.98327371     2.21500
Zr350      Zr  0.12328190  0.69698433  0.48886170     2.11100
O351        O  0.14424859  0.76982884  0.01968365    -2.47900
O352        O  0.23203747  0.85832519  0.01586531    -0.79900
O353        O  0.20018323  0.71758885  0.01146884    -0.72100
O354        O  0.22259158  0.86241666  0.46221368    -2.33100
O355        O  0.28809890  0.80493548  0.00903735    -2.29300
O356        O  0.13338647  0.77217054  0.46439007    -0.73900
H357        H  0.18027582  0.69324700  0.44033437     0.78100
H358        H  0.22702298  0.89392929  0.45432765     0.79200
H359        H  0.11678675  0.76068104  0.03319352     0.81400
H360        H  0.31860190  0.81123191  0.01855323     0.79100
H361        H  0.16850213  0.79701830  0.37399534     0.42100
H362        H  0.09713923  0.84426724  0.45022662     0.41100
H363        H  0.15893002  0.88558954  0.04851623     0.40700
H364        H  0.17657111  0.80199998  0.09101520     0.38700
H365        H  0.26130937  0.72976092  0.06782077     0.41800
H366        H  0.32449630  0.72807475  0.01784487     0.36600
H367        H  0.25457203  0.67540713  0.42846053     0.42700
H368        H  0.24432834  0.78538436  0.37917690     0.39100
H369        H  0.20689503  0.77485439  0.10075271     0.44000
H370        H  0.31847067  0.68982252  0.99425610     0.42800
H371        H  0.24909150  0.74915810  0.40067084     0.42900
H372        H  0.09600016  0.88174228  0.47223996     0.43300
O373        O  0.62178010  0.86840419  0.41255734    -0.75600
O374        O  0.57002232  0.89428165  0.43182212    -0.54500
C375        C  0.59256326  0.88739317  0.41062534     0.78100
O376        O  0.43387521  0.64335815  0.48686569    -0.60200
O377        O  0.48640389  0.61188436  0.49672273    -0.53200
C378        C  0.44114697  0.60573605  0.49235331     0.70100
O379        O  0.43669341  0.79500692  0.97776311    -0.74800
O380        O  0.49189719  0.88057887  0.97903534    -0.55300
C381        C  0.44541677  0.84127062  0.97764261     0.76100
O382        O  0.62548512  0.72572068  0.43321331    -0.59900
O383        O  0.57002518  0.65195088  0.45237102    -0.53000
C384        C  0.59248124  0.67871205  0.43047231     0.72700
Zr385      Zr  0.59383297  0.78479494  0.43220601     2.54700
O386        O  0.52981334  0.74001588  0.39726024    -0.80500
O387        O  0.64564243  0.79965709  0.39000756    -0.93900
Zr388      Zr  0.47283218  0.74018361  0.98301214     2.64700
O389        O  0.40997151  0.69638871  0.44475302    -0.98900
O390        O  0.40290484  0.71180014  0.01701692    -0.80900
O391        O  0.53022787  0.80121675  0.45197282    -0.84300
O392        O  0.52876818  0.71529026  0.45924744    -2.19000
O393        O  0.71989932  0.77655382  0.50041946    -0.67700
O394        O  0.65019450  0.69556939  0.50038239    -0.52200
C395        C  0.69899350  0.72653635  0.50191000     0.71100
O396        O  0.62228397  0.88959267  0.04563184    -0.60600
O397        O  0.58200153  0.92431577  0.02435301    -0.52500
C398        C  0.60327338  0.91905830  0.04617248     0.72900
O399        O  0.56858381  0.73069796  0.06965374    -0.72000
O400        O  0.56465332  0.66665451  0.04292046    -0.50600
C401        C  0.56593861  0.68745118  0.06642615     0.74300
O402        O  0.71885930  0.93598614  0.49677341    -0.67300
O403        O  0.65791454  0.95673855  0.98031452    -0.54500
C404        C  0.70253033  0.97179046  0.99042052     0.72700
Zr405      Zr  0.68500305  0.83882196  0.49552927     2.77500
O406        O  0.73726577  0.87010873  0.03640936    -0.98000
O407        O  0.75713836  0.87199165  0.46251168    -0.78900
Zr408      Zr  0.56699989  0.79794734  0.04417332     2.70100
O409        O  0.59260271  0.81942779  0.09189297    -0.80100
O410        O  0.49436369  0.79035183  0.07166322    -0.99200
Zr411      Zr  0.57642771  0.87928358  0.98065769     2.21500
Zr412      Zr  0.57027495  0.69531181  0.49543188     2.11100
O413        O  0.62447691  0.77472944  0.02303671    -2.47900
O414        O  0.62513053  0.86205924  0.01357166    -0.79900
O415        O  0.63585315  0.76590874  0.46768175    -0.72100
O416        O  0.51753054  0.81219293  0.01137153    -2.33100
O417        O  0.63928745  0.85659817  0.46121033    -2.29300
O418        O  0.51574075  0.72347409  0.01842421    -0.73900
H419        H  0.50922363  0.68631404  0.44761317     0.78100
H420        H  0.49469055  0.82174602  0.02046362     0.79200
H421        H  0.64288918  0.76720037  0.03671061     0.81400
H422        H  0.66609736  0.88647588  0.45160289     0.79100
H423        H  0.41085500  0.69364891  0.03151330     0.42100
H424        H  0.49890100  0.82526737  0.07163149     0.41100
H425        H  0.62691443  0.82235782  0.09259793     0.40700
H426        H  0.76536643  0.90553350  0.03245308     0.38700
H427        H  0.74208089  0.85325214  0.44530016     0.41800
H428        H  0.68016986  0.82830358  0.39428922     0.36600
H429        H  0.50159061  0.74692733  0.40185240     0.42700
H430        H  0.41869883  0.72494858  0.43152527     0.39100
H431        H  0.71467175  0.87394875  0.05023219     0.44000
H432        H  0.63212733  0.81384007  0.37609151     0.42800
H433        H  0.42067026  0.67422944  0.43500157     0.42900
H434        H  0.46345972  0.76968559  0.06067257     0.43300
O435        O  0.20719043  0.56750689  0.98765392    -0.75600
O436        O  0.12113616  0.51284094  0.98845282    -0.54500
C437        C  0.16103325  0.55891942  0.98664475     0.78100
O438        O  0.26045023  0.37163100  0.43950233    -0.60200
O439        O  0.33818592  0.42697300  0.45212246    -0.53200
C440        C  0.30713000  0.40155158  0.43288409     0.70100
O441        O  0.12516168  0.38134062  0.42161357    -0.74800
O442        O  0.08703943  0.41730619  0.44662819    -0.55300
C443        C  0.09429139  0.39871477  0.42398665     0.76100
O444        O  0.35261817  0.56348088  0.49154654    -0.59900
O445        O  0.38469024  0.51004743  0.49699626    -0.53000
C446        C  0.39064122  0.55562610  0.49385919     0.72700
Zr447      Zr  0.26104889  0.53127828  0.99431370     2.54700
O448        O  0.29379985  0.58677942  0.45162549    -0.80500
O449        O  0.28364188  0.58742383  0.03399815    -0.93900
Zr450      Zr  0.20782156  0.41041493  0.44043183     2.64700
O451        O  0.25143211  0.48123005  0.40721986    -0.98900
O452        O  0.19680981  0.37187130  0.39511782    -0.80900
O453        O  0.19185695  0.47110189  0.46280836    -0.84300
O454        O  0.28006221  0.47205848  0.46502403    -2.19000
O455        O  0.26851384  0.41825290  0.07550372    -0.67700
O456        O  0.33257597  0.42828364  0.04558168    -0.52200
C457        C  0.31222421  0.42195174  0.07022918     0.71100
O458        O  0.05724692  0.27326226  0.50355660    -0.60600
O459        O  0.04234860  0.34522228  0.99699071    -0.52500
C460        C  0.02589684  0.29683656  0.00039072     0.72900
O461        O  0.21846064  0.27696975  0.50343728    -0.72000
O462        O  0.30012202  0.34598176  0.50019711    -0.50600
C463        C  0.26860787  0.29739550  0.50237200     0.74300
O464        O  0.11046359  0.38281133  0.05530082    -0.67300
O465        O  0.08093114  0.43042640  0.03743251    -0.54500
C466        C  0.08752724  0.40838757  0.05844675     0.72700
Zr467      Zr  0.20304553  0.42771765  0.05286386     2.77500
O468        O  0.17315307  0.39280050  0.09949635    -0.98000
O469        O  0.22246848  0.50317425  0.07978822    -0.78900
Zr470      Zr  0.15551049  0.31141498  0.50251683     2.70100
O471        O  0.12458946  0.25895947  0.04007556    -0.80100
O472        O  0.12412850  0.24128906  0.46995129    -0.99200
Zr473      Zr  0.11992063  0.42789157  0.99299554     2.21500
Zr474      Zr  0.30091531  0.42617678  0.49838260     2.11100
O475        O  0.22512312  0.37387809  0.02728742    -2.47900
O476        O  0.13655912  0.37392722  0.02328079    -0.79900
O477        O  0.27820534  0.48250277  0.02615222    -0.72100
O478        O  0.13687818  0.36128438  0.47098312    -2.33100
O479        O  0.18818255  0.48181687  0.02312757    -2.29300
O480        O  0.22767092  0.36398685  0.47288497    -0.73900
H481        H  0.30873375  0.49248364  0.45254024     0.78100
H482        H  0.10667057  0.33610570  0.46177179     0.79200
H483        H  0.23250135  0.35316505  0.03960285     0.81400
H484        H  0.17929523  0.50368203  0.03359959     0.79100
H485        H  0.17699517  0.33447874  0.39891150     0.42100
H486        H  0.10407625  0.24882345  0.45661702     0.41100
H487        H  0.13934914  0.28217084  0.05590675     0.40700
H488        H  0.17134175  0.35904281  0.09949063     0.38700
H489        H  0.25197748  0.50893234  0.09107570     0.41800
H490        H  0.26325503  0.60488402  0.03235402     0.36600
H491        H  0.31063101  0.62101963  0.46009442     0.42700
H492        H  0.22654759  0.47324332  0.39231078     0.39100
H493        H  0.20174957  0.41418239  0.11181910     0.44000
H494        H  0.31956300  0.61466116  0.03015952     0.42800
H495        H  0.25281907  0.51110230  0.41647192     0.42900
H496        H  0.15508958  0.24715021  0.45920877     0.43300
O497        O  0.43135610  0.14701265  0.42898268    -0.75600
O498        O  0.42036624  0.08351079  0.45889737    -0.54500
C499        C  0.42370359  0.10193665  0.43405462     0.78100
O500        O  0.56041162  0.34889678  0.52006567    -0.60200
O501        O  0.50784378  0.38210591  0.51574787    -0.53200
C502        C  0.55323664  0.38756197  0.51849911     0.70100
O503        O  0.55825361  0.20499907  0.01041963    -0.74800
O504        O  0.50500699  0.12070573  0.00296133    -0.55300
C505        C  0.55156451  0.15658973  0.50525388     0.76100
O506        O  0.44791955  0.29577988  0.43635866    -0.59900
O507        O  0.43893656  0.34566565  0.46900376    -0.53000
C508        C  0.44694827  0.33565007  0.44400771     0.72700
Zr509      Zr  0.43519815  0.21725677  0.45416739     2.54700
O510        O  0.50668537  0.25077432  0.42071542    -0.80500
O511        O  0.36916871  0.19391152  0.41982273    -0.93900
Zr512      Zr  0.52435309  0.25668803  0.51878703     2.64700
O513        O  0.60900869  0.29913628  0.49618381    -0.98900
O514        O  0.57185981  0.27938821  0.06034124    -0.80900
O515        O  0.48353538  0.19576515  0.48353919    -0.84300
O516        O  0.48360272  0.28195165  0.48634751    -2.19000
O517        O  0.27731027  0.21840122  0.50091382    -0.67700
O518        O  0.34526243  0.29812313  0.50986390    -0.52200
C519        C  0.29743686  0.26783296  0.50466393     0.71100
O520        O  0.35894590  0.10407623  0.06466479    -0.60600
O521        O  0.41408699  0.08017303  0.05125120    -0.52500
C522        C  0.38662179  0.08471049  0.07058268     0.72900
O523        O  0.37797880  0.25564305  0.08538992    -0.72000
O524        O  0.42950927  0.32941378  0.06209711    -0.50600
C525        C  0.40875485  0.30382892  0.08485913     0.74300
O526        O  0.27432887  0.05695526  0.49782811    -0.67300
O527        O  0.34048966  0.04500453  0.00310971    -0.54500
C528        C  0.29257705  0.02923470  0.99968813     0.72700
Zr529      Zr  0.31073608  0.15470242  0.50174872     2.77500
O530        O  0.23889170  0.11856606  0.03631146    -0.98000
O531        O  0.25928489  0.13475695  0.46054274    -0.78900
Zr532      Zr  0.40020701  0.19572396  0.06598819     2.70100
O533        O  0.35080893  0.15998305  0.10894371    -0.80100
O534        O  0.46705334  0.21986761  0.09990722    -0.99200
Zr535      Zr  0.42224300  0.11836436  0.50607839     2.21500
Zr536      Zr  0.42524124  0.29784650  0.51282455     2.11100
O537        O  0.35659780  0.22296264  0.03560934    -2.47900
O538        O  0.35809987  0.13423233  0.03134927    -0.79900
O539        O  0.37635982  0.23216654  0.47987781    -0.72100
O540        O  0.46392688  0.18462976  0.04134584    -2.33100
O541        O  0.37311203  0.14191822  0.47681270    -2.29300
O542        O  0.46489829  0.27303398  0.04488707    -0.73900
H543        H  0.50906912  0.31243158  0.47654479     0.78100
H544        H  0.48230253  0.17442806  0.05359885     0.79200
H545        H  0.33175064  0.22910445  0.04524301     0.81400
H546        H  0.35472166  0.11579846  0.46338760     0.79100
H547        H  0.57826366  0.25040702  0.06286819     0.42100
H548        H  0.48949235  0.25731247  0.09717538     0.41100
H549        H  0.31452795  0.14157874  0.10327755     0.40700
H550        H  0.25059444  0.14188692  0.05224563     0.38700
H551        H  0.26830240  0.11246602  0.44963416     0.41800
H552        H  0.38833274  0.21062128  0.40241038     0.36600
H553        H  0.53721855  0.27322371  0.43161710     0.42700
H554        H  0.60660493  0.32035643  0.48122053     0.39100
H555        H  0.21134511  0.12308093  0.02821777     0.44000
H556        H  0.35133394  0.21300272  0.42493499     0.42800
H557        H  0.63218912  0.32393610  0.50978376     0.42900
H558        H  0.44962596  0.21642384  0.11804793     0.43300
C559        C  0.46600414  0.35899444  0.16603786    -0.06400
C560        C  0.41279083  0.33036634  0.16221268    -0.17600
C561        C  0.39265196  0.31454375  0.13571951     0.10700
C562        C  0.42617559  0.32818174  0.11216802    -0.06400
C563        C  0.47928580  0.35578213  0.11615952    -0.17600
C564        C  0.49933607  0.36995173  0.14260913     0.10800
S565        S  0.32373761  0.27832472  0.13317415    -0.32600
S566        S  0.56832595  0.40182655  0.14524230    -0.32600
H567        H  0.56759836  0.38558645  0.17267709     0.28800
H568        H  0.32261245  0.29702395  0.10662171     0.28800
H569        H  0.38667042  0.32287439  0.17967694     0.19400
H570        H  0.50559225  0.36400035  0.09866846     0.19400
C571        C  0.47396594  0.38969090  0.36322817    -0.06400
C572        C  0.51451168  0.41195879  0.38171260    -0.17600
C573        C  0.50593578  0.40061867  0.41005749     0.10700
C574        C  0.45519347  0.36947194  0.42054496    -0.06400
C575        C  0.41445987  0.34972948  0.40202535    -0.17600
C576        C  0.42375552  0.35734089  0.37350821     0.10800
S577        S  0.56151888  0.42104537  0.43119749    -0.32600
S578        S  0.37084911  0.32298207  0.35083361    -0.32600
H579        H  0.39972617  0.31507000  0.33023350     0.28800
H580        H  0.53611736  0.41723184  0.45659619     0.28800
H581        H  0.55314442  0.43811822  0.37393562     0.19400
H582        H  0.37599333  0.32242019  0.40951272     0.19400
C583        C  0.66801416  0.61508578  0.10886495    -0.06400
C584        C  0.70003926  0.64964734  0.12904953    -0.17600
C585        C  0.69030099  0.63799333  0.15749212     0.10700
C586        C  0.64729837  0.59118184  0.16598572    -0.06400
C587        C  0.61185793  0.56109407  0.14562397    -0.17600
C588        C  0.62060637  0.57369753  0.11762704     0.10800
S589        S  0.73613575  0.68181148  0.18133679    -0.32600
S590        S  0.57245535  0.53153410  0.09409144    -0.32600
H591        H  0.57951827  0.57156263  0.07609419     0.28800
H592        H  0.74047741  0.64357073  0.19583066     0.28800
H593        H  0.73613328  0.68284165  0.12255450     0.19400
H594        H  0.57667995  0.52623109  0.15131207     0.19400
C595        C  0.66303509  0.59129139  0.42061851    -0.06400
C596        C  0.69635560  0.61714135  0.39765057    -0.17600
C597        C  0.67875541  0.61108598  0.37040541     0.10700
C598        C  0.62649630  0.57726762  0.36543969    -0.06400
C599        C  0.59273195  0.55413367  0.38857849    -0.17600
C600        C  0.60989783  0.56192965  0.41580308     0.10800
S601        S  0.72317819  0.64808697  0.34258699    -0.32600
S602        S  0.56150216  0.53375062  0.44306579    -0.32600
H603        H  0.58476058  0.57643304  0.46028892     0.28800
H604        H  0.76474465  0.68002005  0.35920142     0.28800
H605        H  0.73695968  0.64181186  0.40087860     0.19400
H606        H  0.55191323  0.52962039  0.38558333     0.19400
C607        C  0.54379009  0.63960094  0.15003148    -0.06400
C608        C  0.59334435  0.67432041  0.13997311    -0.17600
C609        C  0.60299375  0.68610157  0.11164644     0.10700
C610        C  0.56270252  0.66174555  0.09275397    -0.06400
C611        C  0.51334566  0.62647138  0.10282289    -0.17600
C612        C  0.50332402  0.61624634  0.13120200     0.10800
S613        S  0.66702081  0.73434085  0.10065372    -0.32600
S614        S  0.43753378  0.57493247  0.14249354    -0.32600
H615        H  0.44271268  0.59771291  0.16843407     0.28800
H616        H  0.66395556  0.71557573  0.07374245     0.28800
H617        H  0.62491914  0.69116834  0.15412234     0.19400
H618        H  0.48155708  0.61018449  0.08877144     0.19400
C619        C  0.53456921  0.64543801  0.34707660    -0.06400
C620        C  0.50320666  0.61736321  0.37005762    -0.17600
C621        C  0.52129019  0.62441259  0.39710828     0.10700
C622        C  0.57315677  0.66061171  0.40202844    -0.06400
C623        C  0.60545168  0.68724749  0.37901561    -0.17600
C624        C  0.58691628  0.68082424  0.35185162     0.10800
S625        S  0.47653987  0.58666492  0.42469541    -0.32600
S626        S  0.63108262  0.71747127  0.32382610    -0.32600
H627        H  0.67542866  0.74338373  0.33964610     0.28800
H628        H  0.43145627  0.57199966  0.41009475     0.28800
H629        H  0.46394918  0.58835322  0.36680488     0.19400
H630        H  0.64551419  0.71420593  0.38250110     0.19400
C631        C  0.38206755  0.43505818  0.14898713    -0.06400
C632        C  0.41330012  0.45745612  0.12487361    -0.17600
C633        C  0.39272478  0.45046788  0.09845124     0.10700
C634        C  0.33925337  0.41989112  0.09539565    -0.06400
C635        C  0.30875883  0.39339116  0.11905117    -0.17600
C636        C  0.32941881  0.40018371  0.14549474     0.10800
S637        S  0.43608422  0.48624549  0.07016863    -0.32600
S638        S  0.28659695  0.36265098  0.17359639    -0.32600
H639        H  0.32267790  0.35268411  0.18610453     0.28800
H640        H  0.42108671  0.44247186  0.05403244     0.28800
H641        H  0.45425685  0.48319726  0.12655714     0.19400
H642        H  0.26774998  0.36816492  0.11710279     0.19400
C643        C  0.33163380  0.44239624  0.34581566    -0.06400
C644        C  0.30827572  0.39069167  0.35409056    -0.17600
C645        C  0.30089973  0.37627926  0.38237198     0.10700
C646        C  0.31973867  0.41448686  0.40296933    -0.06400
C647        C  0.33921808  0.46559492  0.39449382    -0.17600
C648        C  0.34181118  0.47903098  0.36647447     0.10800
S649        S  0.26755521  0.30857908  0.39082199    -0.32600
S650        S  0.35993332  0.54423224  0.35764379    -0.32600
H651        H  0.34429182  0.53449764  0.33002979     0.28800
H652        H  0.29132284  0.31261144  0.41615013     0.28800
H653        H  0.29915510  0.36175605  0.33857746     0.19400
H654        H  0.34943810  0.49491154  0.40984608     0.19400
C655        C  0.89835424  0.55761114  0.16323983    -0.06400
C656        C  0.92854986  0.60879403  0.15403563    -0.17600
C657        C  0.93232716  0.62255500  0.12578971     0.10700
C658        C  0.90712632  0.58425862  0.10575422    -0.06400
C659        C  0.87560412  0.53348941  0.11507064    -0.17600
C660        C  0.86962745  0.52032670  0.14335971     0.10800
S661        S  0.97114437  0.68954829  0.11653518    -0.32600
S662        S  0.82589443  0.45441193  0.15308785    -0.32600
H663        H  0.81940238  0.46446217  0.18082674     0.28800
H664        H  0.98492679  0.68214810  0.08968979     0.28800
H665        H  0.95230071  0.63777096  0.16864287     0.19400
H666        H  0.85374498  0.50396897  0.10031361     0.19400
C667        C  0.95565589  0.57310559  0.35954516    -0.06400
C668        C  0.97109088  0.55547743  0.38279457    -0.17600
C669        C  0.96103646  0.56428243  0.40998159     0.10700
C670        C  0.93233031  0.58888169  0.41449436    -0.06400
C671        C  0.92301377  0.61225468  0.39154774    -0.17600
C672        C  0.93435910  0.60481185  0.36435375     0.10800
S673        S  0.98349595  0.54090529  0.43765325    -0.32600
S674        S  0.92063744  0.63673981  0.33705567    -0.32600
H675        H  0.96663973  0.65094502  0.32209905     0.28800
H676        H  0.99785355  0.58360829  0.45447120     0.28800
H677        H  0.99024609  0.53331526  0.38001480     0.19400
H678        H  0.90403804  0.63451089  0.39471812     0.19400
C679        C  0.90859360  0.31986681  0.10867116    -0.06400
C680        C  0.92308507  0.37110827  0.11126643    -0.17600
C681        C  0.92448892  0.39212463  0.13710687     0.10700
C682        C  0.91034493  0.36067166  0.16175702    -0.06400
C683        C  0.90211474  0.31077694  0.15915854    -0.17600
C684        C  0.90218554  0.29048133  0.13308983     0.10800
S685        S  0.94337836  0.45906769  0.13645508    -0.32600
S686        S  0.89333329  0.22661935  0.13254039    -0.32600
H687        H  0.91188697  0.22953711  0.10527027     0.28800
H688        H  0.96389875  0.47152293  0.10926294     0.28800
H689        H  0.92880637  0.39380472  0.09270227     0.19400
H690        H  0.89486735  0.28704042  0.17747975     0.19400
C691        C  0.93304341  0.37224691  0.35953140    -0.06400
C692        C  0.92296851  0.39798982  0.38088181    -0.17600
C693        C  0.91582480  0.38100826  0.40863793     0.10700
C694        C  0.92181340  0.33879328  0.41582530    -0.06400
C695        C  0.93135680  0.31275223  0.39432568    -0.17600
C696        C  0.93631356  0.32841345  0.36646707     0.10800
S697        S  0.89545971  0.41139512  0.43406847    -0.32600
S698        S  0.94673885  0.29066859  0.34104322    -0.32600
H699        H  0.97802345  0.33137408  0.32279656     0.28800
H700        H  0.88399414  0.43991867  0.41529094     0.28800
H701        H  0.92045364  0.43169278  0.37566127     0.19400
H702        H  0.93443179  0.27922953  0.39922228     0.19400
C703        C  0.07704783  0.43790298  0.14406994    -0.06400
C704        C  0.04961502  0.38745910  0.13458691    -0.17600
C705        C  0.05063722  0.37679450  0.10641660     0.10700
C706        C  0.07657541  0.41755959  0.08699724    -0.06400
C707        C  0.10388538  0.46784050  0.09654482    -0.17600
C708        C  0.10609559  0.47806557  0.12484512     0.10800
S709        S  0.01924078  0.31054267  0.09643263    -0.32600
S710        S  0.14858965  0.54290114  0.13542554    -0.32600
H711        H  0.15512267  0.53040371  0.16251178     0.28800
H712        H  0.00673243  0.31863626  0.06969626     0.28800
H713        H  0.02644574  0.35640229  0.14908350     0.19400
H714        H  0.12667869  0.49902425  0.08204372     0.19400
C715        C  0.08276985  0.43412105  0.34128114    -0.06400
C716        C  0.07486352  0.46119979  0.36298214    -0.17600
C717        C  0.06830265  0.44495312  0.39052432     0.10700
C718        C  0.07189739  0.40150224  0.39740611    -0.06400
C719        C  0.07329878  0.37085612  0.37561035    -0.17600
C720        C  0.08038250  0.38741683  0.34787755     0.10800
S721        S  0.06004954  0.48411086  0.41587450    -0.32600
S722        S  0.09096073  0.34982260  0.32253963    -0.32600
H723        H  0.13377599  0.39234760  0.30996594     0.28800
H724        H  0.02289293  0.44198340  0.43166056     0.28800
H725        H  0.07396214  0.49609668  0.35869295     0.20000
H726        H  0.07499981  0.33653742  0.38043304     0.19400
C727        C  0.07907968  0.65039975  0.08441048    -0.06400
C728        C  0.08114190  0.68227383  0.10633734    -0.17600
C729        C  0.08140050  0.66876930  0.13406893     0.10700
C730        C  0.07705869  0.62112237  0.14043081    -0.06400
C731        C  0.06964535  0.58739244  0.11839318    -0.17600
C732        C  0.07117046  0.60153948  0.09075996     0.10800
S733        S  0.08624403  0.71322426  0.16016263    -0.32600
S734        S  0.06792094  0.55764833  0.06462055    -0.32600
H735        H  0.03753449  0.56802940  0.04691768     0.28800
H736        H  0.12952987  0.71515043  0.17204569     0.28800
H737        H  0.08749370  0.72029196  0.10164067     0.19400
H738        H  0.06221598  0.54895873  0.12265493     0.19400
C739        C  0.11539809  0.65604629  0.33920844    -0.06400
C740        C  0.08912327  0.68308388  0.34395630    -0.17600
C741        C  0.07929118  0.69380600  0.37103224     0.10700
C742        C  0.09434685  0.67563147  0.39416533    -0.06400
C743        C  0.12143871  0.64959274  0.38927388    -0.17600
C744        C  0.13448140  0.64228298  0.36245043     0.10800
S745        S  0.04545911  0.72897245  0.37460125    -0.32600
S746        S  0.17558200  0.61452048  0.35930136    -0.32600
H747        H  0.19439708  0.63429014  0.33249457     0.28800
H748        H  0.02155702  0.70700412  0.40027981     0.28800
H749        H  0.07317030  0.69297682  0.32665683     0.19400
H750        H  0.13499001  0.63688794  0.40650262     0.19400
C751        C  0.33541146  0.90103104  0.07796797    -0.06400
C752        C  0.30800750  0.90874608  0.09963969    -0.17600
C753        C  0.31868667  0.90599724  0.12743781     0.10700
C754        C  0.35852815  0.89644867  0.13418381    -0.06400
C755        C  0.38384881  0.88558164  0.11275321    -0.17600
C756        C  0.37279905  0.88761870  0.08476511     0.10800
S757        S  0.28124452  0.91626779  0.15346157    -0.32600
S758        S  0.40557387  0.87151226  0.05830866    -0.32600
H759        H  0.43490375  0.85989504  0.07616449     0.28800
H760        H  0.27498635  0.87543830  0.17042568     0.28800
H761        H  0.27712973  0.91607465  0.09488312     0.19400
H762        H  0.41407856  0.87761428  0.11804903     0.19400
C763        C  0.34170937  0.87373903  0.33015352    -0.06400
C764        C  0.36659033  0.86599776  0.35258042    -0.17600
C765        C  0.36102551  0.87905443  0.37948969     0.10700
C766        C  0.32752565  0.89823690  0.38508920    -0.06400
C767        C  0.30147859  0.90482477  0.36283733    -0.17600
C768        C  0.30748176  0.89207539  0.33571472     0.10800
S769        S  0.39623393  0.86776551  0.40563693    -0.32600
S770        S  0.26989218  0.89943779  0.30946644    -0.32600
H771        H  0.25435103  0.85105626  0.29808222     0.28800
H772        H  0.41879895  0.91801350  0.41546002     0.28800
H773        H  0.39283748  0.85157990  0.34904308     0.19400
H774        H  0.27428204  0.91794085  0.36680063     0.19400
C775        C  0.59971922  0.93981348  0.07350188    -0.06400
C776        C  0.56141827  0.95241757  0.07756990    -0.17600
C777        C  0.54605773  0.95831635  0.10412312     0.10700
C778        C  0.56653997  0.94688371  0.12796236    -0.06400
C779        C  0.60825488  0.93871932  0.12378425    -0.17600
C780        C  0.62688144  0.93803254  0.09684971     0.10800
S781        S  0.49996952  0.98046080  0.10598930    -0.32600
S782        S  0.68692149  0.93811521  0.09259520    -0.32600
H783        H  0.69977969  0.94404065  0.12067559     0.28800
H784        H  0.50083121  0.99285230  0.07782778     0.28800
H785        H  0.54193636  0.95583559  0.05979129     0.19400
H786        H  0.62738738  0.93483166  0.14160055     0.19400
C787        C  0.55804741  0.88306384  0.32510233    -0.06400
C788        C  0.60648112  0.92039390  0.33419405    -0.17600
C789        C  0.61780494  0.92564981  0.36247100     0.10700
C790        C  0.57978101  0.89353878  0.38224390    -0.06400
C791        C  0.53229812  0.85501562  0.37310490    -0.17600
C792        C  0.52163776  0.84850625  0.34497523     0.10800
S793        S  0.68062863  0.97544324  0.37221209    -0.32600
S794        S  0.45865786  0.79801984  0.33570235    -0.32600
H795        H  0.47112471  0.79713484  0.30757465     0.28800
H796        H  0.66683592  0.98027195  0.39951838     0.28800
H797        H  0.63399447  0.94851956  0.31953440     0.19400
H798        H  0.50381109  0.82844787  0.38798451     0.19400
C799        C  0.62519963  0.09567606  0.14820588    -0.06400
C800        C  0.60285122  0.10686074  0.12577632    -0.17600
C801        C  0.61262305  0.09961872  0.09810511     0.10700
C802        C  0.64795604  0.08289355  0.09191030    -0.06400
C803        C  0.66991883  0.07084533  0.11417069    -0.17600
C804        C  0.65886623  0.07657092  0.14203413     0.10800
S805        S  0.57944349  0.11255274  0.07133106    -0.32600
S806        S  0.68683153  0.05746978  0.16906236    -0.32600
H807        H  0.70839986  0.03506413  0.15191578     0.28800
H808        H  0.53801665  0.10612012  0.08832488     0.28800
H809        H  0.57607407  0.12021511  0.12993701     0.19400
H810        H  0.69678659  0.05760390  0.10959062     0.19400
C811        C  0.65919438  0.09026329  0.39891845    -0.06400
C812        C  0.68385082  0.11890193  0.37445280    -0.17600
C813        C  0.66280506  0.10428401  0.34825609     0.10700
C814        C  0.61441610  0.05962047  0.34580005    -0.06400
C815        C  0.58985320  0.03043470  0.37020150    -0.17600
C816        C  0.61163229  0.04482953  0.39636460     0.10800
S817        S  0.69892313  0.14420871  0.31869383    -0.32600
S818        S  0.57680228  0.00319158  0.42530567    -0.32600
H819        H  0.62018946  0.00363960  0.43610288     0.28800
H820        H  0.74214741  0.18095611  0.33269112     0.28800
H821        H  0.72016504  0.15412337  0.37566759     0.19400
H822        H  0.55305062  0.99552769  0.36910190     0.19400
C823        C  0.39525239  0.08054994  0.10031791    -0.06400
C824        C  0.44466995  0.11292401  0.10995948    -0.17600
C825        C  0.45396770  0.11981148  0.13825444     0.10700
C826        C  0.41496297  0.08895847  0.15781723    -0.06400
C827        C  0.36467438  0.05875014  0.14847817    -0.17600
C828        C  0.35419909  0.05553288  0.12003591     0.10800
S829        S  0.51792916  0.16560952  0.14867921    -0.32600
S830        S  0.28799003  0.01813193  0.11023435    -0.32600
H831        H  0.29784530  0.00601775  0.08359369     0.28800
H832        H  0.50394970  0.16820398  0.17634083     0.28800
H833        H  0.47601534  0.13514794  0.09541752     0.19400
H834        H  0.33418217  0.03454328  0.16312180     0.19400
C835        C  0.42060166  0.03594228  0.35375241    -0.06400
C836        C  0.44247363  0.02473921  0.37669111    -0.17600
C837        C  0.43988125  0.04105108  0.40372914     0.10700
C838        C  0.41674090  0.07120120  0.40842709    -0.06400
C839        C  0.39192206  0.07933701  0.38603156    -0.17600
C840        C  0.39269057  0.06147899  0.35928744     0.10800
S841        S  0.46984679  0.02558627  0.43102917    -0.32600
S842        S  0.35638335  0.07189870  0.33345506    -0.32600
H843        H  0.33712432  0.02297563  0.32202756     0.28800
H844        H  0.42556565  0.00435190  0.44836278     0.28800
H845        H  0.46307632  0.00406329  0.37357244     0.19400
H846        H  0.37217129  0.10084575  0.38929808     0.19400
O847        O  0.42635714  0.05068263  0.80252093    -0.75600
O848        O  0.44360678  0.99355201  0.82351214    -0.54500
C849        C  0.42973476  0.02738437  0.82443914     0.78100
O850        O  0.36098149  0.88947822  0.68427096    -0.60200
O851        O  0.42810229  0.95311800  0.65982389    -0.53200
C852        C  0.38353841  0.91352577  0.66142724     0.70100
O853        O  0.34446090  0.88601134  0.78093251    -0.74800
O854        O  0.40852885  0.88545870  0.80183616    -0.55300
C855        C  0.36501411  0.88210738  0.80315799     0.76100
O856        O  0.42231862  0.07914879  0.70631218    -0.59900
O857        O  0.45295606  0.04905529  0.67215857    -0.53000
C858        C  0.43099596  0.07344295  0.68051928     0.72700
Zr859      Zr  0.43973476  0.04872534  0.75111690     2.54700
O860        O  0.35460796  0.03796197  0.75936361    -0.80500
O861        O  0.47587866  0.14064490  0.75678533    -0.93900
Zr862      Zr  0.38365616  0.89896297  0.73404604     2.64700
O863        O  0.29183707  0.86702407  0.73007672    -0.98900
O864        O  0.35655340  0.80808540  0.73560503    -0.80900
O865        O  0.41512385  0.96641054  0.76390217    -0.84300
O866        O  0.41010587  0.98286648  0.71731718    -2.19000
O867        O  0.62377075  0.09697880  0.69816856    -0.67700
O868        O  0.55477402  0.08493982  0.67585615    -0.52200
C869        C  0.60109945  0.09485643  0.67534195     0.71100
O870        O  0.55324535  0.90113754  0.77489836    -0.60600
O871        O  0.50999983  0.91728363  0.80895447    -0.52500
C872        C  0.53955277  0.90108359  0.80060015     0.72900
O873        O  0.54693770  0.92555996  0.67736433    -0.72000
O874        O  0.52772520  0.98227582  0.65786711    -0.50600
C875        C  0.54420935  0.95099730  0.65611894     0.74300
O876        O  0.60923246  0.07183208  0.79537273    -0.67300
O877        O  0.54171104  0.01131782  0.82074530    -0.54500
C878        C  0.58761921  0.04875070  0.81869788     0.72700
Zr879      Zr  0.58447378  0.07092989  0.74610908     2.77500
O880        O  0.67675035  0.10566798  0.74992397    -0.98000
O881        O  0.60517885  0.15964665  0.75084670    -0.78900
Zr882      Zr  0.52820463  0.92127883  0.72910709     2.70100
O883        O  0.60924573  0.92225900  0.72204727    -0.80100
O884        O  0.48840502  0.82932386  0.72187643    -0.99200
Zr885      Zr  0.47909053  0.96549816  0.78737598     2.21500
Zr886      Zr  0.48826256  0.00426549  0.69332315     2.11100
O887        O  0.56140196  0.00564668  0.71250319    -2.47900
O888        O  0.54887839  0.98668839  0.75950623    -0.79900
O889        O  0.51240810  0.06429746  0.72645305    -0.72100
O890        O  0.45225542  0.89537694  0.75644474    -2.33100
O891        O  0.51102896  0.05267863  0.77433602    -2.29300
O892        O  0.46002658  0.92453095  0.71073025    -0.73900
H893        H  0.38375604  0.98203774  0.70584379     0.78100
H894        H  0.44195763  0.86234303  0.76484574     0.79200
H895        H  0.58870916  0.01109298  0.69971166     0.81400
H896        H  0.52063054  0.07516939  0.78998211     0.79100
H897        H  0.32991958  0.79371945  0.75060456     0.42100
H898        H  0.50137991  0.81681847  0.73696613     0.41100
H899        H  0.59909453  0.88630474  0.71786666     0.40700
H900        H  0.68431074  0.08252902  0.73883233     0.38700
H901        H  0.60874751  0.16559363  0.77101524     0.41800
H902        H  0.48529698  0.14656922  0.77647725     0.36600
H903        H  0.33317334  0.00189080  0.76571747     0.42700
H904        H  0.28954293  0.89426557  0.71975691     0.39100
H905        H  0.69265055  0.13823287  0.73910197     0.44000
H906        H  0.44599505  0.14600500  0.75551903     0.42800
H907        H  0.27952931  0.83802901  0.71717327     0.42900
H908        H  0.45149854  0.81512401  0.72657248     0.43300
O909        O  0.09271653  0.63884772  0.78834463    -0.75600
O910        O  0.08227109  0.57681301  0.81870088    -0.54500
C911        C  0.09516056  0.62290302  0.81298016     0.78100
O912        O  0.89635450  0.54037046  0.71377831    -0.60200
O913        O  0.93174457  0.51208705  0.68150235    -0.53200
C914        C  0.90446197  0.53176300  0.68837082     0.70100
O915        O  0.93055716  0.55007336  0.80983943    -0.74800
O916        O  0.98745698  0.53413723  0.83157963    -0.55300
C917        C  0.95523664  0.54965520  0.83157997     0.76100
O918        O  0.07867919  0.61742581  0.69060067    -0.59900
O919        O  0.02490226  0.54393282  0.66891081    -0.53000
C920        C  0.05686477  0.59155182  0.66862944     0.72700
Zr921      Zr  0.07823031  0.59860526  0.74146859     2.54700
O922        O  0.10112757  0.68784054  0.73487266    -0.80500
O923        O  0.17110493  0.63637016  0.73663092    -0.93900
Zr924      Zr  0.92615407  0.52625655  0.75976333     2.64700
O925        O  0.91600606  0.60123630  0.76507919    -0.98900
O926        O  0.83375160  0.47463297  0.76832763    -0.80900
O927        O  0.00996635  0.56129975  0.77190195    -0.84300
O928        O  0.99351551  0.56118279  0.72548041    -2.19000
O929        O  0.08085907  0.44545443  0.69392418    -0.67700
O930        O  0.02092914  0.45592679  0.67122417    -0.52200
C931        C  0.05735781  0.44580652  0.67191061     0.71100
O932        O  0.91635150  0.36618930  0.81001862    -0.60600
O933        O  0.97546030  0.43793722  0.83159314    -0.52500
C934        C  0.93961080  0.39120819  0.83184715     0.72900
O935        O  0.90159200  0.34882764  0.71281417    -0.72000
O936        O  0.90334564  0.41442326  0.69166189    -0.50600
C937        C  0.90132273  0.37177320  0.69021488     0.74300
O938        O  0.07300836  0.42506472  0.79060511    -0.67300
O939        O  0.09092526  0.49666899  0.81066030    -0.54500
C940        C  0.08198659  0.45142188  0.81273146     0.72700
Zr941      Zr  0.07446654  0.46110018  0.74372972     2.77500
O942        O  0.09684533  0.39390520  0.73917461    -0.98000
O943        O  0.16780003  0.51276077  0.74444700    -0.78900
Zr944      Zr  0.92175663  0.38848780  0.75981337     2.70100
O945        O  0.90957093  0.30298421  0.76699945    -0.80100
O946        O  0.82866320  0.34984281  0.76359462    -0.99200
Zr947      Zr  0.01932733  0.50324431  0.79712651     2.21500
Zr948      Zr  0.98256360  0.48499402  0.70471110     2.11100
O949        O  0.99056290  0.41782899  0.72600261    -2.47900
O950        O  0.00522152  0.43320840  0.77333959    -0.79900
O951        O  0.06220176  0.52262220  0.72230405    -0.72100
O952        O  0.93110175  0.46084336  0.78525656    -2.33100
O953        O  0.09199230  0.53834685  0.76625690    -2.29300
O954        O  0.92017641  0.45577220  0.73806196    -0.73900
H955        H  0.99117763  0.58529332  0.71323102     0.78100
H956        H  0.90833730  0.45033220  0.80135166     0.79200
H957        H  0.98908026  0.39181192  0.71385635     0.81400
H958        H  0.12541196  0.55600848  0.77448535     0.79100
H959        H  0.83009310  0.45715803  0.78632825     0.42100
H960        H  0.81763265  0.34897546  0.74435190     0.41100
H961        H  0.94471014  0.30866666  0.76936386     0.40700
H962        H  0.06903848  0.36700998  0.72823881     0.38700
H963        H  0.17662064  0.54082572  0.73085674     0.41800
H964        H  0.18492114  0.67330151  0.74008680     0.36600
H965        H  0.06862142  0.68638868  0.72986428     0.42700
H966        H  0.94650461  0.62931317  0.75537105     0.39100
H967        H  0.12757696  0.40859330  0.72666034     0.44000
H968        H  0.17751617  0.63474648  0.71659204     0.42800
H969        H  0.88673207  0.59480545  0.75339953     0.42900
H970        H  0.81623944  0.31349359  0.76855496     0.43300
O971        O  0.54390770  0.65318496  0.79627730    -0.75600
O972        O  0.48000789  0.58541286  0.81669732    -0.54500
C973        C  0.52003948  0.62878880  0.81857759     0.78100
O974        O  0.37919728  0.45400311  0.69910137    -0.60200
O975        O  0.45401211  0.47398825  0.67624670    -0.53200
C976        C  0.40592565  0.45760803  0.67676543     0.70100
O977        O  0.35205230  0.45886616  0.79680307    -0.74800
O978        O  0.41406553  0.48674343  0.82912877    -0.55300
C979        C  0.36743245  0.46662909  0.82224263     0.76100
O980        O  0.54149797  0.63647974  0.70008297    -0.59900
O981        O  0.53885177  0.56921932  0.67731475    -0.53000
C982        C  0.54355359  0.61364342  0.67792070     0.72700
Zr983      Zr  0.52644337  0.61311860  0.74998594     2.54700
O984        O  0.46535458  0.64401407  0.74995872    -0.80500
O985        O  0.59350591  0.70165473  0.74147885    -0.93900
Zr986      Zr  0.39599142  0.47408881  0.74961290     2.64700
O987        O  0.35215156  0.52250233  0.74143370    -0.98900
O988        O  0.31217940  0.39738475  0.74599730    -0.80900
O989        O  0.45796027  0.54418238  0.77176743    -0.84300
O990        O  0.46658064  0.54128003  0.72422893    -2.19000
O991        O  0.64913260  0.58008235  0.71849131    -0.67700
O992        O  0.59544790  0.50852480  0.69901283    -0.52200
C993        C  0.63199382  0.55350214  0.69652924     0.71100
O994        O  0.47213364  0.38526900  0.81403473    -0.60600
O995        O  0.47993539  0.45410807  0.83765451    -0.52500
C996        C  0.47352008  0.40916413  0.83645858     0.72900
O997        O  0.46134394  0.36671426  0.71605606    -0.72000
O998        O  0.50478989  0.43212370  0.68515990    -0.50600
C999        C  0.47767661  0.38477713  0.69111631     0.74300
O1000       O  0.62657088  0.55782566  0.81589674    -0.67300
O1001       O  0.55508270  0.54958981  0.83761307    -0.54500
C1002       C  0.60151555  0.55941460  0.83777023     0.72700
Zr1003     Zr  0.60986308  0.54373621  0.76505792     2.77500
O1004       O  0.65375580  0.49406152  0.76416168    -0.98000
O1005       O  0.69662831  0.61214410  0.77425631    -0.78900
Zr1006     Zr  0.47814423  0.40445800  0.76375365     2.70100
O1007       O  0.52575616  0.35850222  0.76371489    -0.80100
O1008       O  0.40150773  0.32145723  0.77242735    -0.99200
Zr1009     Zr  0.49115948  0.51521120  0.80399688     2.21500
Zr1010     Zr  0.51583714  0.50253202  0.71065973     2.11100
O1011       O  0.55334498  0.46761788  0.74069810    -2.47900
O1012       O  0.53494207  0.47954518  0.78476248    -0.79900
O1013       O  0.56937187  0.57175832  0.73567058    -0.72100
O1014       O  0.42875962  0.43921196  0.78239968    -2.33100
O1015       O  0.56603930  0.58454825  0.78286207    -2.29300
O1016       O  0.44722274  0.44213544  0.73514168    -0.73900
H1017       H  0.45429599  0.55178662  0.70861490     0.78100
H1018       H  0.40277072  0.41423318  0.79492486     0.79200
H1019       H  0.57009214  0.44987401  0.73306071     0.81400
H1020       H  0.58941253  0.61070644  0.79503222     0.79100
H1021       H  0.31220604  0.37323381  0.75996253     0.42100
H1022       H  0.37713250  0.31914590  0.75825386     0.41100
H1023       H  0.55665355  0.38019625  0.77453445     0.40700
H1024       H  0.69073726  0.51993955  0.76233189     0.38700
H1025       H  0.70089931  0.64194947  0.76330466     0.41800
H1026       H  0.62150444  0.70677308  0.75384743     0.36600
H1027       H  0.47808117  0.67021095  0.73489943     0.42700
H1028       H  0.36789038  0.55155596  0.75428753     0.39100
H1029       H  0.64936364  0.48023012  0.78326459     0.44000
H1030       H  0.57945495  0.72235555  0.74968708     0.42800
H1031       H  0.36457326  0.53830837  0.72281670     0.42900
H1032       H  0.41170313  0.29614153  0.76675773     0.43300
O1033       O  0.78861630  0.42983903  0.51637170    -0.75600
O1034       O  0.87424289  0.48384948  0.51026568    -0.54500
C1035       C  0.83462169  0.43789652  0.51332717     0.78100
O1036       O  0.73278883  0.61362142  0.94872877    -0.60200
O1037       O  0.65703235  0.57146216  0.97058677    -0.53200
C1038       C  0.68394089  0.59205841  0.94831728     0.70100
O1039       O  0.85194710  0.57500035  0.93491209    -0.74800
O1040       O  0.91080751  0.57557670  0.96388913    -0.55300
C1041       C  0.89512332  0.57823513  0.93953072     0.76100
O1042       O  0.64085229  0.43383539  0.02144943    -0.59900
O1043       O  0.61021821  0.48898079  0.01814546    -0.53000
C1044       C  0.60326965  0.44250237  0.01985794     0.72700
Zr1045     Zr  0.73313701  0.46603033  0.51685045     2.54700
O1046       O  0.69954878  0.40105031  0.98875934    -0.80500
O1047       O  0.69711869  0.39985467  0.55305945    -0.93900
Zr1048     Zr  0.77636890  0.56595362  0.95699554     2.64700
O1049       O  0.71739647  0.48889572  0.93243930    -0.98900
O1050       O  0.78994814  0.59101368  0.90825078    -0.80900
O1051       O  0.79745670  0.51598619  0.98617620    -0.84300
O1052       O  0.70883261  0.51580736  0.98883841    -2.19000
O1053       O  0.73429385  0.60291879  0.58918751    -0.67700
O1054       O  0.66553697  0.58002266  0.56181867    -0.52200
C1055       C  0.68914964  0.59505158  0.58498759     0.71100
O1056       O  0.93894724  0.72219192  0.00107826    -0.60600
O1057       O  0.95256964  0.65069437  0.50852596    -0.52500
C1058       C  0.96891812  0.69901312  0.50484962     0.72900
O1059       O  0.78019837  0.72256662  0.00056252    -0.72000
O1060       O  0.69852305  0.65533405  0.00835837    -0.50600
C1061       C  0.73024143  0.70308329  0.00297959     0.74300
O1062       O  0.88323296  0.61835660  0.57158209    -0.67300
O1063       O  0.90743653  0.56481910  0.55647461    -0.54500
C1064       C  0.90034330  0.58839739  0.57668653     0.72700
Zr1065     Zr  0.79190555  0.57918956  0.56886797     2.77500
O1066       O  0.81935120  0.61286747  0.61506487    -0.98000
O1067       O  0.76133822  0.50442448  0.59935232    -0.78900
Zr1068     Zr  0.84153238  0.68642654  0.00434134     2.70100
O1069       O  0.87102218  0.74355314  0.54554133    -0.80100
O1070       O  0.86936220  0.73414692  0.96054736    -0.99200
Zr1071     Zr  0.87432858  0.56839180  0.51051353     2.21500
Zr1072     Zr  0.69502794  0.57451970  0.01552975     2.11100
O1073       O  0.77105850  0.62965937  0.53961598    -2.47900
O1074       O  0.86011706  0.62869948  0.53689407    -0.79900
O1075       O  0.71703705  0.52020903  0.54562749    -0.72100
O1076       O  0.85241543  0.62369892  0.97993011    -2.33100
O1077       O  0.80506689  0.51960952  0.54317091    -2.29300
O1078       O  0.76460276  0.62500976  0.98314761    -0.73900
H1079       H  0.67836656  0.49265584  0.97904092     0.78100
H1080       H  0.88038418  0.64353133  0.96695419     0.79200
H1081       H  0.76481072  0.65387563  0.54950862     0.81400
H1082       H  0.81274924  0.49884604  0.55527791     0.79100
H1083       H  0.81271792  0.62869843  0.90821539     0.42100
H1084       H  0.85920293  0.70756289  0.94626717     0.41100
H1085       H  0.86028811  0.72231624  0.56271845     0.40700
H1086       H  0.82687731  0.64882562  0.61402255     0.38700
H1087       H  0.72958544  0.50059285  0.60826339     0.41800
H1088       H  0.68952239  0.41619563  0.56878537     0.36600
H1089       H  0.71955530  0.41579983  0.97130385     0.42700
H1090       H  0.69308086  0.49760778  0.92373314     0.39100
H1091       H  0.78853227  0.59504991  0.62742520     0.44000
H1092       H  0.72611039  0.39580171  0.55929434     0.42800
H1093       H  0.73814575  0.48704329  0.91677281     0.42900
H1094       H  0.84609984  0.74819049  0.95795565     0.43300
O1095       O  0.64019735  0.20315899  0.50397668    -0.75600
O1096       O  0.60858855  0.11798352  0.49883947    -0.54500
C1097       C  0.60227183  0.15732494  0.50210192     0.78100
O1098       O  0.88824570  0.26998750  0.94836272    -0.60200
O1099       O  0.91407210  0.34469350  0.96738230    -0.53200
C1100       C  0.90902814  0.31826145  0.94568528     0.70100
O1101       O  0.73168283  0.15119057  0.92313614    -0.74800
O1102       O  0.66169261  0.09893341  0.94997569    -0.55300
C1103       C  0.68518583  0.11496802  0.92611946     0.76100
O1104       O  0.78599995  0.35435049  0.00864069    -0.59900
O1105       O  0.87120412  0.38397725  0.01328047    -0.53000
C1106       C  0.83205833  0.39132794  0.01161740     0.72700
Zr1107     Zr  0.73174466  0.25895897  0.50585730     2.54700
O1108       O  0.70347069  0.29806127  0.96734799    -0.80500
O1109       O  0.69426009  0.28559800  0.54283249    -0.93900
Zr1110     Zr  0.79623353  0.22105685  0.94815559     2.64700
O1111       O  0.78576665  0.28075110  0.91855029    -0.98900
O1112       O  0.82579522  0.20608237  0.90377567    -0.80900
O1113       O  0.71835137  0.20017654  0.97206486    -0.84300
O1114       O  0.80630511  0.28729209  0.97827379    -2.19000
O1115       O  0.84836142  0.24429753  0.58481862    -0.67700
O1116       O  0.89903849  0.31621879  0.55886266    -0.52200
C1117       C  0.88533356  0.29008685  0.58200591     0.71100
O1118       O  0.77952772  0.05832774  0.99796580    -0.60600
O1119       O  0.69758254  0.04156345  0.49449189    -0.52500
C1120       C  0.72932716  0.02440145  0.49425049     0.72900
O1121       O  0.93722641  0.21696106  0.00152882    -0.72000
O1122       O  0.94974777  0.29772630  0.00797271    -0.50600
C1123       C  0.96708936  0.26680436  0.00374346     0.74300
O1124       O  0.71712536  0.09838153  0.56075935    -0.67300
O1125       O  0.64480948  0.07781957  0.54059308    -0.54500
C1126       C  0.66937444  0.08278344  0.56285769     0.72700
Zr1127     Zr  0.77427394  0.18931562  0.55955037     2.77500
O1128       O  0.77781476  0.14973499  0.60290914    -0.98000
O1129       O  0.72318476  0.21155298  0.59016982    -0.78900
Zr1130     Zr  0.83895878  0.15459799  0.00315621     2.70100
O1131       O  0.86569645  0.11354499  0.53781807    -0.80100
O1132       O  0.87520168  0.12618869  0.96645590    -0.99200
Zr1133     Zr  0.69317270  0.11919274  0.49721430     2.21500
Zr1134     Zr  0.87061047  0.29940161  0.01090025     2.11100
O1135       O  0.85115136  0.21460967  0.53324858    -2.47900
O1136       O  0.76166161  0.12720665  0.52622252    -0.79900
O1137       O  0.79500575  0.26847621  0.53755896    -0.72100
O1138       O  0.77168463  0.14387794  0.97276721    -2.33100
O1139       O  0.70843152  0.18301318  0.53093944    -2.29300
O1140       O  0.85942023  0.23208619  0.97984858    -0.73900
H1141       H  0.81630251  0.31843694  0.96784936     0.78100
H1142       H  0.76590457  0.11728120  0.95983251     0.79200
H1143       H  0.87891033  0.21922636  0.54483381     0.81400
H1144       H  0.67810066  0.17402703  0.54216880     0.79100
H1145       H  0.84606947  0.18952269  0.90860629     0.42100
H1146       H  0.88878267  0.15430435  0.95244424     0.41100
H1147       H  0.83773208  0.10212488  0.55202160     0.40700
H1148       H  0.80951640  0.14740819  0.60141436     0.38700
H1149       H  0.74875768  0.24351988  0.59904245     0.41800
H1150       H  0.72180071  0.30189475  0.55647215     0.36600
H1151       H  0.73567296  0.32315339  0.95753463     0.42700
H1152       H  0.80988350  0.28793427  0.90267504     0.39100
H1153       H  0.78402733  0.17484892  0.61759167     0.44000
H1154       H  0.66815212  0.25333953  0.55209219     0.42800
H1155       H  0.75129504  0.25977224  0.91071199     0.42900
H1156       H  0.90614071  0.12793371  0.97442931     0.43300
O1157       O  0.35491277  0.79075960  0.47305170    -0.75600
O1158       O  0.38661323  0.87581659  0.47933567    -0.54500
C1159       C  0.39301297  0.83646271  0.47557956     0.78100
O1160       O  0.10985291  0.74223251  0.92577164    -0.60200
O1161       O  0.08885631  0.66582918  0.94292526    -0.53200
C1162       C  0.09391676  0.69492471  0.92213714     0.70100
O1163       O  0.26136356  0.88615044  0.91633131    -0.74800
O1164       O  0.33624004  0.91033922  0.93632071    -0.55300
C1165       C  0.30947100  0.90310378  0.91462165     0.76100
O1166       O  0.20707339  0.64703022  0.97914796    -0.59900
O1167       O  0.12210535  0.61593283  0.98793923    -0.53000
C1168       C  0.16125850  0.60934179  0.98387697     0.72700
Zr1169     Zr  0.26279914  0.73480566  0.47598606     2.54700
O1170       O  0.29246189  0.71198027  0.93559498    -0.80500
O1171       O  0.29960025  0.69619775  0.50512010    -0.93900
Zr1172     Zr  0.20091067  0.79899155  0.92980042     2.64700
O1173       O  0.23061325  0.76086979  0.89483167    -0.98900
O1174       O  0.17464946  0.82102177  0.88689078    -0.80900
O1175       O  0.27722294  0.81159744  0.95080901    -0.84300
O1176       O  0.19038910  0.72430884  0.95323989    -2.19000
O1177       O  0.14639749  0.71803795  0.56429181    -0.67700
O1178       O  0.08797335  0.66006077  0.53517687    -0.52200
C1179       C  0.10410627  0.67743667  0.55954617     0.71100
O1180       O  0.21414781  0.94082448  0.99866593    -0.60600
O1181       O  0.29668018  0.95268910  0.48795505    -0.52500
C1182       C  0.26493936  0.96848793  0.49453022     0.72900
O1183       O  0.05680921  0.78136348  0.99918407    -0.72000
O1184       O  0.04437826  0.70056728  0.99334714    -0.50600
C1185       C  0.02716427  0.73150726  0.99779079     0.74300
O1186       O  0.26822869  0.87416300  0.54759268    -0.67300
O1187       O  0.34444058  0.90612571  0.52715010    -0.54500
C1188       C  0.31670487  0.89580790  0.54942614     0.72700
Zr1189     Zr  0.22189659  0.78318990  0.54136245     2.77500
O1190       O  0.22419942  0.79896356  0.59093481    -0.98000
O1191       O  0.27975698  0.75787929  0.56165393    -0.78900
Zr1192     Zr  0.15428884  0.84365296  0.99525192     2.70100
O1193       O  0.12944685  0.86779039  0.53750870    -0.80100
O1194       O  0.12103498  0.88038296  0.96210987    -0.99200
Zr1195     Zr  0.30180282  0.87544173  0.48255580     2.21500
Zr1196     Zr  0.12400643  0.70035068  0.98836877     2.11100
O1197       O  0.14478821  0.76719252  0.51992576    -2.47900
O1198       O  0.23261268  0.85487822  0.51575938    -0.79900
O1199       O  0.19966147  0.71354033  0.51145398    -0.72100
O1200       O  0.22312429  0.86566187  0.96247433    -2.33100
O1201       O  0.28793073  0.80129453  0.50824926    -2.29300
O1202       O  0.13423413  0.77549457  0.96390666    -0.73900
H1203       H  0.18225606  0.69705746  0.94041498     0.78100
H1204       H  0.22753636  0.89723684  0.95468915     0.79200
H1205       H  0.11740209  0.75909606  0.53330543     0.81400
H1206       H  0.31879439  0.80780465  0.51744856     0.79100
H1207       H  0.14501478  0.82527030  0.89229969     0.42100
H1208       H  0.13141297  0.87338834  0.94380127     0.41100
H1209       H  0.11945126  0.89276495  0.53100814     0.40700
H1210       H  0.19384388  0.80278085  0.59505236     0.38700
H1211       H  0.25689498  0.72239362  0.56856644     0.41800
H1212       H  0.32451957  0.72458208  0.51655312     0.36600
H1213       H  0.26242487  0.69704019  0.92345653     0.42700
H1214       H  0.21455881  0.76244797  0.87745226     0.39100
H1215       H  0.21651381  0.76650889  0.60032353     0.44000
H1216       H  0.32085599  0.68891696  0.49205438     0.42800
H1217       H  0.26757595  0.78606098  0.89190713     0.42900
H1218       H  0.08324970  0.85786638  0.96313708     0.43300
O1219       O  0.62409993  0.87140083  0.91190104    -0.75600
O1220       O  0.57273734  0.89802693  0.93091514    -0.54500
C1221       C  0.59511009  0.89055799  0.90973926     0.78100
O1222       O  0.43429509  0.64855028  0.98845213    -0.60200
O1223       O  0.48720514  0.61695859  0.99728530    -0.53200
C1224       C  0.44166664  0.61081138  0.99361659     0.70100
O1225       O  0.43484415  0.78957387  0.47498709    -0.74800
O1226       O  0.48978175  0.87490182  0.47874979    -0.55300
C1227       C  0.44361599  0.83586282  0.47599279     0.76100
O1228       O  0.62604400  0.72955549  0.93276256    -0.59900
O1229       O  0.57088049  0.65620788  0.95278584    -0.53000
C1230       C  0.59374973  0.68211822  0.93072878     0.72700
Zr1231     Zr  0.59364265  0.78821194  0.93230168     2.54700
O1232       O  0.52273249  0.74455535  0.90082149    -0.80500
O1233       O  0.63761237  0.79658619  0.88795477    -0.93900
Zr1234     Zr  0.47067718  0.73468674  0.48191912     2.64700
O1235       O  0.41719162  0.70675953  0.94348231    -0.98900
O1236       O  0.40233802  0.70738202  0.51693019    -0.80900
O1237       O  0.53155912  0.80611702  0.95261804    -0.84300
O1238       O  0.52936705  0.71922660  0.95984989    -2.19000
O1239       O  0.72272146  0.78252481  0.99784809    -0.67700
O1240       O  0.65264392  0.70171451  0.99859816    -0.52200
C1241       C  0.70154543  0.73255364  0.99931158     0.71100
O1242       O  0.61562853  0.88367905  0.54601345    -0.60600
O1243       O  0.57584185  0.91809478  0.52400444    -0.52500
C1244       C  0.59609349  0.91273321  0.54616237     0.72900
O1245       O  0.56460934  0.72508024  0.56993866    -0.72000
O1246       O  0.56231014  0.66196474  0.54295698    -0.50600
C1247       C  0.56278043  0.68220881  0.56654832     0.74300
O1248       O  0.71979022  0.94092214  0.99731150    -0.67300
O1249       O  0.65558263  0.95126568  0.48141821    -0.54500
C1250       C  0.70116369  0.96670123  0.49029118     0.72700
Zr1251     Zr  0.68740944  0.84420388  0.99449049     2.77500
O1252       O  0.73315411  0.86644107  0.53797213    -0.98000
O1253       O  0.75970579  0.88082384  0.96150829    -0.78900
Zr1254     Zr  0.56231397  0.79173240  0.54407065     2.70100
O1255       O  0.58372254  0.81247980  0.59233750    -0.80100
O1256       O  0.48798550  0.78326548  0.57023170    -0.99200
Zr1257     Zr  0.57398415  0.87369267  0.48084645     2.21500
Zr1258     Zr  0.57194931  0.70019155  0.99557837     2.11100
O1259       O  0.62101452  0.76932904  0.52350493    -2.47900
O1260       O  0.62209936  0.85663639  0.51429424    -0.79900
O1261       O  0.63694388  0.77040686  0.96736010    -0.72100
O1262       O  0.51381666  0.80602629  0.51075677    -2.33100
O1263       O  0.64067635  0.86117953  0.96054308    -2.29300
O1264       O  0.51258716  0.71751918  0.51773772    -0.73900
H1265       H  0.50935765  0.68990280  0.94849888     0.78100
H1266       H  0.49040939  0.81523440  0.51946913     0.79200
H1267       H  0.63903574  0.76174031  0.53738890     0.81400
H1268       H  0.66747851  0.89103634  0.95091610     0.79100
H1269       H  0.40259306  0.67918592  0.52741302     0.42100
H1270       H  0.49071224  0.81737774  0.56889850     0.41100
H1271       H  0.61819829  0.81609167  0.59398967     0.40700
H1272       H  0.70780853  0.86459327  0.55203566     0.38700
H1273       H  0.74404269  0.86785993  0.94336162     0.41800
H1274       H  0.67317496  0.82503727  0.89028200     0.36600
H1275       H  0.53418253  0.72736844  0.88739646     0.42700
H1276       H  0.38455109  0.70468139  0.94965726     0.39100
H1277       H  0.73934791  0.83819086  0.54323675     0.44000
H1278       H  0.62232533  0.80989817  0.87460567     0.42800
H1279       H  0.43217607  0.73514496  0.92961939     0.42900
H1280       H  0.45754527  0.76031555  0.55944740     0.43300
O1281       O  0.20634727  0.56315020  0.48692583    -0.75600
O1282       O  0.12044881  0.50824431  0.48956287    -0.54500
C1283       C  0.16006052  0.55451289  0.48720912     0.78100
O1284       O  0.26118163  0.37978310  0.94015436    -0.60200
O1285       O  0.33930453  0.43242204  0.95309434    -0.53200
C1286       C  0.30810586  0.40854520  0.93366207     0.70100
O1287       O  0.13130314  0.39878456  0.91898852    -0.74800
O1288       O  0.08208865  0.41837623  0.94716648    -0.55300
C1289       C  0.09300600  0.40545365  0.92359219     0.76100
O1290       O  0.35292043  0.56860260  0.99403107    -0.59900
O1291       O  0.38465776  0.51463700  0.99808253    -0.53000
C1292       C  0.39090825  0.56052025  0.99553383     0.72700
Zr1293     Zr  0.26097119  0.52683962  0.49075848     2.54700
O1294       O  0.30120916  0.60308668  0.96151590    -0.80500
O1295       O  0.29214126  0.59606518  0.52391147    -0.93900
Zr1296     Zr  0.21063049  0.42072474  0.94026530     2.64700
O1297       O  0.25879148  0.49591251  0.91017677    -0.98900
O1298       O  0.20165654  0.38562587  0.89412251    -0.80900
O1299       O  0.19356552  0.47887303  0.96436932    -0.84300
O1300       O  0.28145337  0.47923558  0.96682849    -2.19000
O1301       O  0.27407200  0.42176136  0.57451691    -0.67700
O1302       O  0.33622739  0.42780210  0.54440775    -0.52200
C1303       C  0.31706639  0.42414427  0.56913022     0.71100
O1304       O  0.05650979  0.27745854  0.00171027    -0.60600
O1305       O  0.04298331  0.34089407  0.49806733    -0.52500
C1306       C  0.02660515  0.29251310  0.50162679     0.72900
O1307       O  0.21710563  0.28031870  0.00141557    -0.72000
O1308       O  0.29891593  0.34932488  0.00006360    -0.50600
C1309       C  0.26727182  0.30061881  0.00144756     0.74300
O1310       O  0.11475856  0.38401443  0.55783304    -0.67300
O1311       O  0.08454310  0.42992245  0.53822029    -0.54500
C1312       C  0.09146869  0.40944501  0.55983206     0.72700
Zr1313     Zr  0.20687810  0.42854008  0.55249561     2.77500
O1314       O  0.18215675  0.39790043  0.60022467    -0.98000
O1315       O  0.22694881  0.50578255  0.57783818    -0.78900
Zr1316     Zr  0.15477654  0.31560560  0.99955703     2.70100
O1317       O  0.12780419  0.26025886  0.54511693    -0.80100
O1318       O  0.12788072  0.25283420  0.96291405    -0.99200
Zr1319     Zr  0.12053333  0.42356565  0.49353015     2.21500
Zr1320     Zr  0.30052363  0.43022511  0.99905719     2.11100
O1321       O  0.22744228  0.37220494  0.52839042    -2.47900
O1322       O  0.13831957  0.37176112  0.52491920    -0.79900
O1323       O  0.27984188  0.48106288  0.52388784    -0.72100
O1324       O  0.13779191  0.36822175  0.96882695    -2.33100
O1325       O  0.19074718  0.48012265  0.52167075    -2.29300
O1326       O  0.22841013  0.37126811  0.97179204    -0.73900
H1327       H  0.31081254  0.50048210  0.95491129     0.78100
H1328       H  0.10862217  0.34465017  0.95831934     0.79200
H1329       H  0.23563908  0.35262177  0.54108564     0.81400
H1330       H  0.18254786  0.50281401  0.53180200     0.79100
H1331       H  0.17997095  0.34810309  0.89696845     0.42100
H1332       H  0.09752756  0.22197244  0.97088135     0.41100
H1333       H  0.14350650  0.28547901  0.56002566     0.40700
H1334       H  0.18216231  0.36502370  0.60104369     0.38700
H1335       H  0.26344168  0.52030620  0.58268581     0.41800
H1336       H  0.30714378  0.58528165  0.53875511     0.36600
H1337       H  0.31745364  0.59221736  0.94706005     0.42700
H1338       H  0.24301522  0.48549766  0.89184552     0.39100
H1339       H  0.21136029  0.42157539  0.61161454     0.44000
H1340       H  0.26088959  0.59371402  0.53262979     0.42800
H1341       H  0.24862204  0.52081214  0.91666535     0.42900
H1342       H  0.11377961  0.26570917  0.94861831     0.43300
O1343       O  0.42707581  0.14927340  0.92886069    -0.75600
O1344       O  0.42017163  0.08722527  0.95862539    -0.54500
C1345       C  0.42156647  0.10498741  0.93382335     0.78100
O1346       O  0.56004498  0.35318796  0.01979505    -0.60200
O1347       O  0.50668573  0.38572936  0.01664140    -0.53200
C1348       C  0.55244890  0.39170006  0.01895536     0.70100
O1349       O  0.55924080  0.20156833  0.51032913    -0.74800
O1350       O  0.50573421  0.11720883  0.50321225    -0.55300
C1351       C  0.55072900  0.16009011  0.00529360     0.76100
O1352       O  0.44233719  0.29794050  0.93724809    -0.59900
O1353       O  0.43669643  0.34937614  0.97010993    -0.53000
C1354       C  0.44250771  0.33831556  0.94498959     0.72700
Zr1355     Zr  0.43379877  0.22070969  0.95422967     2.54700
O1356       O  0.51103542  0.25545488  0.92480050    -0.80500
O1357       O  0.37713627  0.20587805  0.91572203    -0.93900
Zr1358     Zr  0.52379477  0.26078302  0.01791791     2.64700
O1359       O  0.60414559  0.29913596  0.99134858    -0.98900
O1360       O  0.56630338  0.27010052  0.56301096    -0.80900
O1361       O  0.48227317  0.19909424  0.98319766    -0.84300
O1362       O  0.48198142  0.28594156  0.98619909    -2.19000
O1363       O  0.27591907  0.22124844  0.00084509    -0.67700
O1364       O  0.34370580  0.30104795  0.00968701    -0.52200
C1365       C  0.29598200  0.27079716  0.00424988     0.71100
O1366       O  0.35785112  0.10070321  0.56327838    -0.60600
O1367       O  0.41250992  0.07558902  0.55121103    -0.52500
C1368       C  0.38487018  0.08105465  0.57005112     0.72900
O1369       O  0.37742508  0.25331283  0.58361412    -0.72000
O1370       O  0.43208337  0.32692972  0.56136061    -0.50600
C1371       C  0.40974837  0.30100169  0.58378860     0.74300
O1372       O  0.27310501  0.05986293  0.99872458    -0.67300
O1373       O  0.34136858  0.04170617  0.50289343    -0.54500
C1374       C  0.29364473  0.02620129  0.49904474     0.72700
Zr1375     Zr  0.30969342  0.15767486  0.00245651     2.77500
O1376       O  0.24118031  0.11744255  0.53641608    -0.98000
O1377       O  0.25960295  0.13804050  0.96074282    -0.78900
Zr1378     Zr  0.39923935  0.19223234  0.56576288     2.70100
O1379       O  0.34460311  0.15852799  0.60724692    -0.80100
O1380       O  0.46171274  0.21357535  0.60189643    -0.99200
Zr1381     Zr  0.42153842  0.12175340  0.00591757     2.21500
Zr1382     Zr  0.42378633  0.30100759  0.01347817     2.11100
O1383       O  0.35736836  0.22006910  0.53468405    -2.47900
O1384       O  0.35824764  0.13087176  0.53096640    -0.79900
O1385       O  0.37507600  0.23499041  0.98058373    -0.72100
O1386       O  0.46352414  0.18074861  0.54189278    -2.33100
O1387       O  0.37172329  0.14513833  0.97695826    -2.29300
O1388       O  0.46498935  0.26943391  0.54496548    -0.73900
H1389       H  0.50704847  0.31657251  0.97634731     0.78100
H1390       H  0.48144280  0.17037950  0.55435818     0.79200
H1391       H  0.33221034  0.22617379  0.54396142     0.81400
H1392       H  0.35302459  0.11891694  0.96363056     0.79100
H1393       H  0.60271027  0.29593904  0.55899954     0.42100
H1394       H  0.48514897  0.25095503  0.59963321     0.41100
H1395       H  0.30918285  0.14041970  0.60026297     0.40700
H1396       H  0.24903677  0.09503323  0.54792645     0.38700
H1397       H  0.22899771  0.10406716  0.96464728     0.41800
H1398       H  0.34998942  0.16945608  0.91766459     0.36600
H1399       H  0.53795975  0.25729519  0.93701371     0.42700
H1400       H  0.60519443  0.32809980  0.98099482     0.39100
H1401       H  0.24740681  0.14616874  0.54863893     0.44000
H1402       H  0.39747162  0.20727600  0.89901375     0.42800
H1403       H  0.63050807  0.31498341  0.00560862     0.42900
H1404       H  0.44244471  0.21009084  0.61939781     0.43300
C1405       C  0.46161806  0.35237559  0.66621751    -0.06400
C1406       C  0.40887376  0.32363732  0.66124992    -0.17600
C1407       C  0.39079165  0.30967844  0.63429616     0.10700
C1408       C  0.42597576  0.32376837  0.61149702    -0.06400
C1409       C  0.47870726  0.35053811  0.61661987    -0.17600
C1410       C  0.49679236  0.36450694  0.64347321     0.10800
S1411       S  0.32219064  0.27645925  0.63012591    -0.32600
S1412       S  0.56565727  0.39955525  0.64723411    -0.32600
H1413       H  0.56478228  0.38798411  0.67553150     0.28800
H1414       H  0.32421626  0.29746665  0.60375216     0.28800
H1415       H  0.38145647  0.31571001  0.67811465     0.19400
H1416       H  0.50618506  0.35935641  0.59965112     0.19400
C1417       C  0.46634255  0.38541374  0.86368772    -0.06400
C1418       C  0.50798921  0.40804213  0.88143894    -0.17600
C1419       C  0.50068869  0.40009617  0.91003118     0.10700
C1420       C  0.45029156  0.37167241  0.92145912    -0.06400
C1421       C  0.40851593  0.35186370  0.90361120    -0.17600
C1422       C  0.41636906  0.35594195  0.87492141     0.10800
S1423       S  0.55721081  0.42051317  0.93040093    -0.32600
S1424       S  0.36199087  0.32060186  0.85329946    -0.32600
H1425       H  0.38910019  0.30987634  0.83287721     0.28800
H1426       H  0.53352020  0.41906799  0.95603137     0.28800
H1427       H  0.54651042  0.43216297  0.87289096     0.19400
H1428       H  0.37012578  0.32650957  0.91192258     0.19400
C1429       C  0.66395070  0.59938059  0.61053243    -0.06400
C1430       C  0.69685023  0.63296108  0.63081043    -0.17600
C1431       C  0.68870677  0.61971846  0.65907057     0.10700
C1432       C  0.64476361  0.57379411  0.66756887    -0.06400
C1433       C  0.60849183  0.54463345  0.64731538    -0.17600
C1434       C  0.61699386  0.55741266  0.61932115     0.10800
S1435       S  0.73838803  0.65949995  0.68242899    -0.32600
S1436       S  0.56943205  0.51455590  0.59574325    -0.32600
H1437       H  0.57511908  0.55428921  0.57794174     0.28800
H1438       H  0.73916344  0.61808022  0.69557426     0.28800
H1439       H  0.73306326  0.66598647  0.62428104     0.19400
H1440       H  0.57286165  0.51035630  0.65304963     0.19400
C1441       C  0.66073013  0.58951437  0.92090249    -0.06400
C1442       C  0.69446422  0.61221867  0.89773441    -0.17600
C1443       C  0.67719658  0.60388956  0.87053295     0.10700
C1444       C  0.62452829  0.57151846  0.86575155    -0.06400
C1445       C  0.59048134  0.55119042  0.88899690    -0.17600
C1446       C  0.60756067  0.56064895  0.91618312     0.10800
S1447       S  0.72440154  0.63662212  0.84323445    -0.32600
S1448       S  0.55907240  0.53455222  0.94348882    -0.32600
H1449       H  0.58220071  0.57867785  0.95965528     0.28800
H1450       H  0.69311920  0.64994604  0.82816209     0.28800
H1451       H  0.73523027  0.63672049  0.90064440     0.19400
H1452       H  0.54952881  0.52738315  0.88610843     0.19400
C1453       C  0.54865995  0.63682092  0.65042002    -0.06400
C1454       C  0.59769080  0.66503635  0.63800830    -0.17600
C1455       C  0.60378128  0.67595065  0.60950460     0.10700
C1456       C  0.56012386  0.65634187  0.59274619    -0.06400
C1457       C  0.51118528  0.62748565  0.60518757    -0.17600
C1458       C  0.50503741  0.61881595  0.63379957     0.10800
S1459       S  0.66788984  0.71772310  0.59576792    -0.32600
S1460       S  0.44046955  0.58657250  0.64823750    -0.32600
H1461       H  0.45345447  0.61242871  0.67350618     0.28800
H1462       H  0.65799754  0.69849387  0.56877098     0.28800
H1463       H  0.63135885  0.67803979  0.65052111     0.19400
H1464       H  0.47738331  0.61536486  0.59285722     0.19400
C1465       C  0.54136420  0.64449846  0.84697057    -0.06400
C1466       C  0.50888737  0.61670722  0.86967569    -0.17600
C1467       C  0.52557317  0.62448468  0.89697379     0.10700
C1468       C  0.57676047  0.66174487  0.90243185    -0.06400
C1469       C  0.61057033  0.68695626  0.87972376    -0.17600
C1470       C  0.59371162  0.67904679  0.85221966     0.10800
S1471       S  0.47918633  0.58792216  0.92414496    -0.32600
S1472       S  0.63994258  0.71272472  0.82445509    -0.32600
H1473       H  0.68363629  0.73778448  0.84082940     0.28800
H1474       H  0.44835509  0.54565830  0.90767386     0.28800
H1475       H  0.46953947  0.58822022  0.86615633     0.19400
H1476       H  0.65032395  0.71433760  0.88370353     0.19400
C1477       C  0.38264008  0.44367973  0.64893362    -0.06400
C1478       C  0.41449900  0.46973289  0.62553174    -0.17600
C1479       C  0.39613548  0.46017457  0.59858229     0.10700
C1480       C  0.34431064  0.42380241  0.59438128    -0.06400
C1481       C  0.31363478  0.39484654  0.61745975    -0.17600
C1482       C  0.33215792  0.40407093  0.64443257     0.10800
S1483       S  0.43927990  0.49901432  0.57089474    -0.32600
S1484       S  0.28973624  0.36359210  0.67193183    -0.32600
H1485       H  0.32813471  0.35951980  0.68599664     0.28800
H1486       H  0.42850701  0.45667840  0.55433364     0.28800
H1487       H  0.45414941  0.49915419  0.62819509     0.19400
H1488       H  0.27385655  0.36593648  0.61456061     0.19400
C1489       C  0.33245654  0.45069221  0.84686015    -0.06400
C1490       C  0.30760337  0.39879823  0.85496140    -0.17600
C1491       C  0.30033885  0.38398424  0.88315411     0.10700
C1492       C  0.32093042  0.42186462  0.90386634    -0.06400
C1493       C  0.34210636  0.47332945  0.89569078    -0.17600
C1494       C  0.34493991  0.48743615  0.86775778     0.10800
S1495       S  0.26383029  0.31616475  0.89135698    -0.32600
S1496       S  0.36664724  0.55364430  0.85939913    -0.32600
H1497       H  0.35142920  0.54541931  0.83168841     0.28800
H1498       H  0.28695681  0.31821292  0.91664303     0.28800
H1499       H  0.29713648  0.36983386  0.83932216     0.19400
H1500       H  0.35370546  0.50257644  0.91123528     0.19400
C1501       C  0.88649901  0.54747256  0.66379111    -0.06400
C1502       C  0.91594706  0.59892170  0.65502477    -0.17600
C1503       C  0.92289352  0.61292920  0.62674582     0.10700
C1504       C  0.90109023  0.57481509  0.60629232    -0.06400
C1505       C  0.86910742  0.52380050  0.61514523    -0.17600
C1506       C  0.86010611  0.51028319  0.64342940     0.10800
S1507       S  0.96158599  0.68015569  0.61800683    -0.32600
S1508       S  0.81624792  0.44401463  0.65258545    -0.32600
H1509       H  0.81137688  0.45222778  0.68083468     0.28800
H1510       H  0.98022029  0.67336622  0.59237696     0.28800
H1511       H  0.93742024  0.62796619  0.67009816     0.19400
H1512       H  0.84944436  0.49437821  0.59997922     0.19400
C1513       C  0.94739913  0.56647044  0.85930097    -0.06400
C1514       C  0.96543626  0.55204834  0.88279370    -0.17600
C1515       C  0.95631663  0.56263492  0.90976366     0.10700
C1516       C  0.92577863  0.58526882  0.91379861    -0.06400
C1517       C  0.91407429  0.60587996  0.89051175    -0.17600
C1518       C  0.92460678  0.59697078  0.86352034     0.10800
S1519       S  0.98285259  0.54480314  0.93792160    -0.32600
S1520       S  0.90798062  0.62562901  0.83576412    -0.32600
H1521       H  0.95442443  0.64184077  0.82082035     0.28800
H1522       H  0.99656984  0.58941287  0.95298958     0.28800
H1523       H  0.98610690  0.53127757  0.88043463     0.19400
H1524       H  0.89405124  0.62719966  0.89331184     0.19400
C1525       C  0.90736526  0.31461323  0.60858136    -0.06400
C1526       C  0.91805564  0.36472823  0.61140140    -0.17600
C1527       C  0.91737407  0.38462249  0.63731403     0.10700
C1528       C  0.90536689  0.35327747  0.66187965    -0.06400
C1529       C  0.90095633  0.30488606  0.65907805    -0.17600
C1530       C  0.90266346  0.28561395  0.63290972     0.10800
S1531       S  0.93229794  0.45042747  0.63707015    -0.32600
S1532       S  0.89806643  0.22349542  0.63217275    -0.32600
H1533       H  0.91563919  0.22687586  0.60465672     0.28800
H1534       H  0.93916151  0.46099580  0.60844770     0.28800
H1535       H  0.92281714  0.38717867  0.59288489     0.19400
H1536       H  0.89542259  0.28147533  0.67732148     0.19400
C1537       C  0.92565965  0.36742668  0.85996377    -0.06400
C1538       C  0.91710291  0.39510533  0.88082274    -0.17600
C1539       C  0.91299529  0.38131908  0.90897840     0.10700
C1540       C  0.91963258  0.33984734  0.91691407    -0.06400
C1541       C  0.92775144  0.31194484  0.89595621    -0.17600
C1542       C  0.93013635  0.32466589  0.86779422     0.10800
S1543       S  0.89621391  0.41511547  0.93409140    -0.32600
S1544       S  0.93902801  0.28462854  0.84326387    -0.32600
H1545       H  0.96707698  0.32295974  0.82321501     0.28800
H1546       H  0.88625094  0.44445277  0.91510861     0.28800
H1547       H  0.91401962  0.42820107  0.87489911     0.19400
H1548       H  0.93181319  0.27926505  0.90155326     0.19400
C1549       C  0.07294272  0.43590270  0.64477084    -0.06400
C1550       C  0.04700424  0.38586478  0.63473347    -0.17600
C1551       C  0.05030019  0.37649160  0.60662799     0.10700
C1552       C  0.07785246  0.41798158  0.58788007    -0.06400
C1553       C  0.10371940  0.46798359  0.59796108    -0.17600
C1554       C  0.10264383  0.47717245  0.62624904     0.10800
S1555       S  0.01956150  0.31085721  0.59570066    -0.32600
S1556       S  0.14053563  0.54238640  0.63760564    -0.32600
H1557       H  0.14479162  0.53067432  0.66524904     0.28800
H1558       H  0.00737112  0.32053155  0.56921217     0.28800
H1559       H  0.02305401  0.35413568  0.64870521     0.19400
H1560       H  0.12731764  0.49979123  0.58395533     0.19400
C1561       C  0.07347035  0.43029835  0.84156280    -0.06400
C1562       C  0.06641169  0.45918596  0.86253349    -0.17600
C1563       C  0.06080605  0.44515722  0.89037852     0.10700
C1564       C  0.06494725  0.40254423  0.89829083    -0.06400
C1565       C  0.06433655  0.36944414  0.87741550    -0.17600
C1566       C  0.06992241  0.38343718  0.84925263     0.10800
S1567       S  0.05563648  0.48726074  0.91492226    -0.32600
S1568       S  0.07731332  0.34255735  0.82478716    -0.32600
H1569       H  0.12053282  0.38297345  0.81119984     0.28800
H1570       H  0.02060504  0.44712605  0.93256173     0.28800
H1571       H  0.06603145  0.49408870  0.85745829     0.20000
H1572       H  0.06657870  0.33581563  0.88325991     0.19400
C1573       C  0.07553985  0.65090576  0.58516860    -0.06400
C1574       C  0.08017686  0.68236030  0.60780448    -0.17600
C1575       C  0.07664787  0.66544723  0.63517843     0.10700
C1576       C  0.06612690  0.61507055  0.64044425    -0.06400
C1577       C  0.05623095  0.58225407  0.61761105    -0.17600
C1578       C  0.06035066  0.59937366  0.59032159     0.10800
S1579       S  0.08629673  0.70995892  0.66219383    -0.32600
S1580       S  0.05013950  0.55491684  0.56308361    -0.32600
H1581       H  0.02065022  0.56984621  0.54741809     0.28800
H1582       H  0.12947222  0.70885037  0.67213364     0.28800
H1583       H  0.09115062  0.72212021  0.60406541     0.19400
H1584       H  0.04574159  0.54255885  0.62088307     0.19400
C1585       C  0.10736402  0.65511905  0.83788849    -0.06400
C1586       C  0.07823570  0.67885160  0.84385148    -0.17600
C1587       C  0.07168136  0.69099021  0.87120005     0.10700
C1588       C  0.09310206  0.67752148  0.89337100    -0.06400
C1589       C  0.12331891  0.65519431  0.88718802    -0.17600
C1590       C  0.13256623  0.64623585  0.85991575     0.10800
S1591       S  0.03345038  0.72127879  0.87652493    -0.32600
S1592       S  0.17622551  0.62199255  0.85448304    -0.32600
H1593       H  0.18832697  0.63849327  0.82667061     0.28800
H1594       H  0.01581251  0.70152878  0.90343299     0.28800
H1595       H  0.05746270  0.68464938  0.82747017     0.19400
H1596       H  0.14181565  0.64645456  0.90362450     0.19400
C1597       C  0.33706672  0.90232859  0.57782008    -0.06400
C1598       C  0.31100328  0.91293488  0.59904601    -0.17600
C1599       C  0.32072324  0.91015083  0.62702126     0.10700
C1600       C  0.35813759  0.89752921  0.63449341    -0.06400
C1601       C  0.38301176  0.88513309  0.61348094    -0.17600
C1602       C  0.37323823  0.88766395  0.58527793     0.10800
S1603       S  0.28511434  0.92407976  0.65249294    -0.32600
S1604       S  0.40675559  0.87158070  0.55926941    -0.32600
H1605       H  0.43541334  0.85985144  0.57755681     0.28800
H1606       H  0.27528002  0.88209708  0.66956964     0.28800
H1607       H  0.28153520  0.92205721  0.59380149     0.19400
H1608       H  0.41230924  0.87609370  0.61923894     0.19400
C1609       C  0.34557108  0.88337315  0.83146912    -0.06400
C1610       C  0.37235333  0.87770894  0.85367728    -0.17600
C1611       C  0.36678370  0.89063565  0.88071165     0.10700
C1612       C  0.33103234  0.90697218  0.88641346    -0.06400
C1613       C  0.30465181  0.91329597  0.86431712    -0.17600
C1614       C  0.31083689  0.90104088  0.83718989     0.10800
S1615       S  0.40473191  0.88439104  0.90744804    -0.32600
S1616       S  0.27260897  0.90811245  0.81123027    -0.32600
H1617       H  0.25607716  0.85923650  0.80028092     0.28800
H1618       H  0.43594632  0.87298408  0.89023732     0.28800
H1619       H  0.39925696  0.86429131  0.84975622     0.19400
H1620       H  0.27674293  0.92545034  0.86845379     0.19400
C1621       C  0.59212813  0.93415751  0.57323769    -0.06400
C1622       C  0.55461700  0.94810783  0.57685407    -0.17600
C1623       C  0.54049709  0.95665003  0.60323056     0.10700
C1624       C  0.56092114  0.94604296  0.62736464    -0.06400
C1625       C  0.60146259  0.93603679  0.62351689    -0.17600
C1626       C  0.61923652  0.93307561  0.59675864     0.10800
S1627       S  0.49666811  0.98160337  0.60458765    -0.32600
S1628       S  0.67851671  0.93153684  0.59294276    -0.32600
H1629       H  0.69050452  0.93625288  0.62113224     0.28800
H1630       H  0.49643132  0.99133679  0.57612603     0.28800
H1631       H  0.53522775  0.95107696  0.55890865     0.19400
H1632       H  0.62056365  0.93264893  0.64148209     0.19400
C1633       C  0.55967070  0.88554676  0.82400745    -0.06400
C1634       C  0.60857531  0.92205276  0.83295343    -0.17600
C1635       C  0.62028271  0.92725543  0.86118602     0.10700
C1636       C  0.58221127  0.89582972  0.88114546    -0.06400
C1637       C  0.53464844  0.85714994  0.87204270    -0.17600
C1638       C  0.52357812  0.85092478  0.84388908     0.10800
S1639       S  0.68377903  0.97610119  0.87058991    -0.32600
S1640       S  0.46081419  0.80045259  0.83448171    -0.32600
H1641       H  0.47366029  0.80012866  0.80635428     0.28800
H1642       H  0.67029905  0.98274518  0.89764757     0.28800
H1643       H  0.63619081  0.94988943  0.81821643     0.19400
H1644       H  0.50638362  0.83039091  0.88694939     0.19400
C1645       C  0.62401372  0.09620160  0.64708046    -0.06400
C1646       C  0.60176414  0.10614488  0.62414673    -0.17600
C1647       C  0.61238151  0.09844604  0.59671091     0.10700
C1648       C  0.64723837  0.08078957  0.59124493    -0.06400
C1649       C  0.66903965  0.06989058  0.61403362    -0.17600
C1650       C  0.65804155  0.07725070  0.64164720     0.10800
S1651       S  0.57975716  0.11073036  0.56935667    -0.32600
S1652       S  0.68572349  0.05937759  0.66936665    -0.32600
H1653       H  0.71995504  0.05105942  0.65287752     0.28800
H1654       H  0.56880056  0.14431440  0.58428621     0.28800
H1655       H  0.57391900  0.11826170  0.62769090     0.19400
H1656       H  0.69519560  0.05555261  0.61007490     0.19400
C1657       C  0.65924138  0.09439708  0.89911784    -0.06400
C1658       C  0.68344867  0.12445617  0.87494097    -0.17600
C1659       C  0.66258566  0.11066976  0.84859555     0.10700
C1660       C  0.61516094  0.06515535  0.84561625    -0.06400
C1661       C  0.59106327  0.03462036  0.86973810    -0.17600
C1662       C  0.61235730  0.04845436  0.89607255     0.10800
S1663       S  0.69687577  0.15330378  0.81960559    -0.32600
S1664       S  0.57772716  0.00562663  0.92463288    -0.32600
H1665       H  0.62155130  0.00710587  0.93551126     0.28800
H1666       H  0.74143660  0.18782238  0.83350088     0.28800
H1667       H  0.71900753  0.16035874  0.87656747     0.19400
H1668       H  0.55490192  0.99910241  0.86828333     0.19400
C1669       C  0.39387491  0.07926316  0.59992124    -0.06400
C1670       C  0.44430658  0.10948280  0.60870475    -0.17600
C1671       C  0.45479480  0.12040645  0.63663382     0.10700
C1672       C  0.41590409  0.09393963  0.65705659    -0.06400
C1673       C  0.36487432  0.06561765  0.64850875    -0.17600
C1674       C  0.35332598  0.05947842  0.62018332     0.10800
S1675       S  0.51995311  0.16518500  0.64569089    -0.32600
S1676       S  0.28636245  0.02469137  0.61137034    -0.32600
H1677       H  0.29343648  0.00856797  0.58523978     0.28800
H1678       H  0.50832171  0.17036467  0.67341719     0.28800
H1679       H  0.47570729  0.12741003  0.59368882     0.19400
H1680       H  0.33436872  0.04478496  0.66380205     0.19400
C1681       C  0.42034732  0.04106239  0.85318660    -0.06400
C1682       C  0.44440415  0.03183655  0.87572904    -0.17600
C1683       C  0.44170724  0.04762488  0.90283121     0.10700
C1684       C  0.41529898  0.07454112  0.90814056    -0.06400
C1685       C  0.38855673  0.08080966  0.88606706    -0.17600
C1686       C  0.39027066  0.06415648  0.85911033     0.10800
S1687       S  0.47654367  0.03652106  0.92917988    -0.32600
S1688       S  0.35309700  0.07365331  0.83341835    -0.32600
H1689       H  0.33630209  0.02581999  0.82112250     0.28800
H1690       H  0.43392285  0.01325039  0.94764458     0.28800
H1691       H  0.46717041  0.01348792  0.87218687     0.19400
H1692       H  0.36691324  0.10032660  0.88969919     0.19400
loop_ 
_geom_bond_atom_site_label_1 
_geom_bond_atom_site_label_2 
_geom_bond_distance 
_geom_bond_site_symmetry_2 
_ccdc_geom_bond_type 
O1          Zr13   2.519       .  S
O1            C3   1.302       .  A
O2          Zr39   2.399       .  S
O2            C3   1.279   1_565  A
C3          C835   1.516       .  S
O4          Zr16   2.490       .  S
O4            C6   1.293       .  A
O5          Zr40   2.376   1_565  S
O5            C6   1.274       .  A
C6          C754   1.480       .  S
O7          Zr16   2.470       .  S
O7            C9   1.284       .  A
O8          Zr39   2.373       .  S
O8            C9   1.260       .  A
C9          C763   1.485       .  S
O10         Zr13   2.510       .  S
O10          C12   1.298       .  A
O11         Zr40   2.340       .  S
O11          C12   1.270       .  A
C12         C826   1.473       .  S
Zr13         O14   2.434       .  S
Zr13         O15   2.436       .  S
Zr13         O19   2.287   1_545  S
Zr13         O43   2.294       .  S
Zr13         O20   2.396   1_545  S
Zr13         O45   2.384       .  S
O14          H57   0.990       .  S
O15          H56   0.990       .  S
O15          H60   0.990       .  S
Zr16         O17   2.438       .  S
Zr16         O18   2.437       .  S
Zr16         O19   2.302       .  S
Zr16         O46   2.289       .  S
Zr16         O20   2.373       .  S
Zr16         O44   2.387       .  S
O17          H58   0.990       .  S
O17          H61   0.990       .  S
O18          H51   0.990       .  S
O19         Zr39   2.263       .  S
O20         Zr40   2.375   1_565  S
O20          H47   0.965       .  S
O21         Zr33   2.509       .  S
O21          C23   1.292       .  A
O22         Zr40   2.384       .  S
O22          C23   1.268       .  A
C23         C799   1.505       .  S
O24         Zr36   2.522       .  S
O24          C26   1.301       .  A
O25         Zr39   2.316       .  S
O25          C26   1.265       .  A
C26         C787   1.471       .  S
O27         Zr36   2.544       .  S
O27          C29   1.306       .  A
O28         Zr40   2.338   1_565  S
O28          C29   1.265       .  A
C29         C778   1.500       .  S
O30         Zr33   2.489       .  S
O30          C32   1.296       .  A
O31         Zr39   2.372   1_545  S
O31          C32   1.276       .  A
C32         C814   1.501       .  S
Zr33         O34   2.437       .  S
Zr33         O35   2.435       .  S
Zr33         O42   2.287   1_545  S
Zr33         O43   2.297       .  S
Zr33         O41   2.380       .  S
Zr33         O45   2.390       .  S
O34          H54   0.990       .  S
O34          H59   0.990       .  S
O35          H55   0.990       .  S
Zr36         O37   2.437       .  S
Zr36         O38   2.435       .  S
Zr36         O42   2.291       .  S
Zr36         O46   2.296       .  S
Zr36         O41   2.349   1_565  S
Zr36         O44   2.373       .  S
O37          H53   0.990       .  S
O38          H52   0.990       .  S
O38          H62   0.991       .  S
Zr39         O42   2.274       .  S
Zr39         O44   2.391       .  S
Zr39         O45   2.376   1_565  S
Zr40         O43   2.259       .  S
Zr40         O46   2.265   1_545  S
Zr40         O41   2.385       .  S
O41          H49   0.962       .  S
O44          H48   0.966       .  S
O45          H50   0.966       .  S
O63         Zr75   2.524       .  S
O63          C65   1.300       .  A
O64        Zr101   2.343       .  S
O64          C65   1.265       .  A
C65         C739   1.489       .  S
O66         Zr78   2.529       .  S
O66          C68   1.301       .  A
O67        Zr102   2.357       .  S
O67          C68   1.268       .  A
C68         C655   1.486       .  S
O69         Zr78   2.514       .  S
O69          C71   1.302       .  A
O70        Zr101   2.336   1_655  S
O70          C71   1.269       .  A
C71         C667   1.493       .  S
O72         Zr75   2.525       .  S
O72          C74   1.302       .  A
O73        Zr102   2.314   1_455  S
O73          C74   1.265       .  A
C74         C730   1.485       .  S
Zr75         O76   2.435       .  S
Zr75         O77   2.436       .  S
Zr75         O81   2.277       .  S
Zr75        O105   2.301       .  S
Zr75         O82   2.358       .  S
Zr75        O107   2.377       .  S
O76         H119   0.990       .  S
O77         H118   0.990       .  S
O77         H122   0.990       .  S
Zr78         O79   2.438       .  S
Zr78         O80   2.435       .  S
Zr78         O81   2.279   1_655  S
Zr78        O108   2.299       .  S
Zr78         O82   2.375   1_655  S
Zr78        O106   2.394       .  S
O79         H120   0.990       .  S
O79         H123   0.990       .  S
O80         H113   0.990       .  S
O81        Zr101   2.258       .  S
O82        Zr102   2.375   1_455  S
O82         H109   0.965       .  S
O83         Zr95   2.488       .  S
O83          C85   1.293       .  A
O84        Zr102   2.383   1_455  S
O84          C85   1.274       .  A
C85         C703   1.473       .  S
O86         Zr98   2.497       .  S
O86          C88   1.297       .  A
O87        Zr101   2.386   1_655  S
O87          C88   1.277       .  A
C88         C691   1.487       .  S
O89         Zr98   2.514       .  S
O89          C91   1.293       .  A
O90        Zr102   2.365       .  S
O90          C91   1.257       .  A
C91         C682   1.504       .  S
O92         Zr95   2.500       .  S
O92          C94   1.288       .  A
O93        Zr101   2.358       .  S
O93          C94   1.254       .  A
C94         C715   1.492       .  S
Zr95         O96   2.439       .  S
Zr95         O97   2.436       .  S
Zr95        O104   2.286       .  S
Zr95        O105   2.307       .  S
Zr95        O103   2.367   1_455  S
Zr95        O107   2.383       .  S
O96         H116   0.990       .  S
O96         H121   0.990       .  S
O97         H117   0.990       .  S
Zr98         O99   2.436       .  S
Zr98        O100   2.435       .  S
Zr98        O104   2.290   1_655  S
Zr98        O108   2.296       .  S
Zr98        O103   2.399       .  S
Zr98        O106   2.399       .  S
O99         H115   0.990       .  S
O100        H114   0.990       .  S
O100        H124   0.990       .  S
Zr101       O104   2.263       .  S
Zr101       O106   2.383   1_455  S
Zr101       O107   2.382       .  S
Zr102       O105   2.263   1_655  S
Zr102       O108   2.258       .  S
Zr102       O103   2.383       .  S
O103        H111   0.965       .  S
O106        H110   0.966       .  S
O107        H112   0.966       .  S
O125       Zr137   2.497       .  S
O125        C127   1.287       .  A
O126       Zr163   2.379       .  S
O126        C127   1.264       .  A
C127        C619   1.506       .  S
O128       Zr140   2.514       .  S
O128        C130   1.301       .  A
O129       Zr164   2.360       .  S
O129        C130   1.274       .  A
C130        C631   1.501       .  S
O131       Zr140   2.524       .  S
O131        C133   1.301       .  A
O132       Zr163   2.347       .  S
O132        C133   1.272       .  A
C133        C643   1.482       .  S
O134       Zr137   2.482       .  S
O134        C136   1.294       .  A
O135       Zr164   2.372       .  S
O135        C136   1.273       .  A
C136        C607   1.467       .  S
Zr137       O138   2.436       .  S
Zr137       O139   2.437       .  S
Zr137       O143   2.300       .  S
Zr137       O167   2.289       .  S
Zr137       O144   2.397       .  S
Zr137       O169   2.399       .  S
O138        H181   0.990       .  S
O139        H180   0.990       .  S
O139        H184   0.990       .  S
Zr140       O141   2.436       .  S
Zr140       O142   2.434       .  S
Zr140       O143   2.294       .  S
Zr140       O170   2.281       .  S
Zr140       O144   2.385       .  S
Zr140       O168   2.385       .  S
O141        H182   0.990       .  S
O141        H185   0.990       .  S
O142        H175   0.990       .  S
O143       Zr163   2.259       .  S
O144       Zr164   2.380       .  S
O144        H171   0.965       .  S
O145       Zr157   2.505       .  S
O145        C147   1.287       .  A
O146       Zr164   2.361       .  S
O146        C147   1.253       .  A
C147        C586   1.492       .  S
O148       Zr160   2.483       .  S
O148        C150   1.294       .  A
O149       Zr163   2.341       .  S
O149        C150   1.269       .  A
C150        C571   1.457       .  S
O151       Zr160   2.521       .  S
O151        C153   1.300       .  A
O152       Zr164   2.346       .  S
O152        C153   1.268       .  A
C153        C559   1.486       .  S
O154       Zr157   2.521       .  S
O154        C156   1.302       .  A
O155       Zr163   2.362       .  S
O155        C156   1.274       .  A
C156        C598   1.499       .  S
Zr157       O158   2.436       .  S
Zr157       O159   2.436       .  S
Zr157       O166   2.295       .  S
Zr157       O167   2.293       .  S
Zr157       O165   2.398       .  S
Zr157       O169   2.357       .  S
O158        H178   0.990       .  S
O158        H183   0.990       .  S
O159        H179   0.990       .  S
Zr160       O161   2.436       .  S
Zr160       O162   2.435       .  S
Zr160       O166   2.297       .  S
Zr160       O170   2.270       .  S
Zr160       O165   2.361       .  S
Zr160       O168   2.373       .  S
O161        H177   0.990       .  S
O162        H176   0.990       .  S
O162        H186   0.990       .  S
Zr163       O166   2.263       .  S
Zr163       O168   2.382       .  S
Zr163       O169   2.381       .  S
Zr164       O167   2.272       .  S
Zr164       O170   2.256       .  S
Zr164       O165   2.390       .  S
O165        H173   0.967       .  S
O168        H172   0.966       .  S
O169        H174   0.964       .  S
O187       Zr199   2.407       .  S
O187        C189   1.284       .  A
O188       Zr225   2.538       .  S
O188        C189   1.303       .  A
C189       C1106   1.523       .  S
O190       Zr202   2.411       .  S
O190        C192   1.276       .  A
O191       Zr226   2.471       .  S
O191        C192   1.290       .  A
C192        C595   1.502       .  S
O193       Zr202   2.387       .  S
O193        C195   1.277       .  A
O194      Zr1071   2.471       .  S
O194        C195   1.295       .  A
C195        C670   1.487       .  S
O196      Zr1045   2.395       .  S
O196        C198   1.281       .  A
O197       Zr226   2.547       .  S
O197        C198   1.306       .  A
C198        C502   1.523       .  S
Zr199      O1042   2.398       .  S
Zr199       O201   2.437       .  S
Zr199      O1046   2.426   1_554  S
Zr199       O229   2.368       .  S
Zr199       O231   2.349       .  S
Zr199      O1051   2.364   1_554  S
Zr199      O1052   2.362   1_554  S
O200      Zr1045   2.434       .  S
O200        H243   0.990       .  S
O201        H242   0.990       .  S
O201        H246   0.990       .  S
Zr202       O203   2.437       .  S
Zr202       O204   2.435       .  S
Zr202       O206   2.360       .  S
Zr202       O205   2.369       .  S
Zr202       O230   2.373       .  S
Zr202       O232   2.354       .  S
O203        H244   0.990       .  S
O203        H247   0.990       .  S
O204        H237   0.990       .  S
O205      Zr1045   2.364       .  S
O205      Zr1071   2.386       .  S
O206       Zr226   2.387       .  S
O206      Zr1045   2.357       .  S
O206        H233   0.966       .  S
O207       Zr219   2.394       .  S
O207        C209   1.278       .  A
O208      Zr1072   2.463       .  S
O208        C209   1.295       .  A
C209        C583   1.478       .  S
O210       Zr222   2.570       .  S
O210       C1058   1.312       .  A
O211       Zr225   2.413       .  S
O211        C212   1.291       .  A
C212       O1056   1.311       .  A
C212       C1185   1.527   1_654  S
O213       Zr222   2.584       .  S
O213        C215   1.315       .  A
O214       Zr226   2.405       .  S
O214        C215   1.289       .  A
C215        C395   1.533       .  S
O216       Zr219   2.402       .  S
O216        C218   1.269       .  A
O217       Zr225   2.474       .  S
O217        C218   1.288       .  A
C218        C658   1.490       .  S
Zr219       O220   2.440       .  S
Zr219       O221   2.435       .  S
Zr219       O227   2.376       .  S
Zr219       O228   2.371       .  S
Zr219       O231   2.376       .  S
Zr219       O229   2.374       .  S
O220        H240   0.990       .  S
O220        H245   0.990       .  S
O221        H241   0.990       .  S
Zr222       O224   2.434       .  S
Zr222      O1069   2.435       .  S
Zr222       O232   2.379       .  S
Zr222       O230   2.393       .  S
Zr222      O1074   2.395       .  S
Zr222      O1073   2.389       .  S
O223      Zr1068   2.434       .  S
O223        H239   0.990       .  S
O224        H238   0.990       .  S
O224        H248   0.990       .  S
Zr225      O1040   2.467   1_554  S
Zr225       O228   2.424       .  S
Zr225       O231   2.399       .  S
Zr225      O1051   2.382   1_554  S
Zr225      O1076   2.419   1_554  S
Zr226      O1054   2.472       .  S
Zr226       O232   2.408       .  S
Zr226      O1073   2.421       .  S
Zr226      O1075   2.383       .  S
O227      Zr1068   2.389       .  S
O227      Zr1072   2.425       .  S
O227        H235   0.964       .  S
O228      Zr1068   2.394       .  S
O229      Zr1072   2.381       .  S
O230      Zr1071   2.427       .  S
O230        H234   0.964       .  S
O231        H236   0.965       .  S
O249       Zr261   2.406       .  S
O249        C251   1.284       .  A
O250       Zr287   2.521       .  S
O250        C251   1.299   1_556  A
C251       C1351   1.514       .  S
O252       Zr264   2.396       .  S
O252        C254   1.269       .  A
O253       Zr288   2.475       .  S
O253        C254   1.288       .  A
C254        C694   1.495       .  S
O255       Zr264   2.388       .  S
O255        C257   1.278       .  A
O256      Zr1133   2.475       .  S
O256        C257   1.295       .  A
C257        C811   1.501       .  S
O258      Zr1107   2.404       .  S
O258        C260   1.284       .  A
O259       Zr288   2.539       .  S
O259        C260   1.303       .  A
C260       C1035   1.525       .  S
Zr261      O1104   2.406       .  S
Zr261       O263   2.438       .  S
Zr261      O1108   2.435   1_554  S
Zr261       O291   2.372       .  S
Zr261       O293   2.355       .  S
Zr261      O1113   2.363   1_554  S
Zr261      O1114   2.352   1_554  S
O262      Zr1107   2.435       .  S
O262        H305   0.990       .  S
O263        H304   0.990       .  S
O263        H308   0.990       .  S
Zr264       O265   2.437       .  S
Zr264       O266   2.435       .  S
Zr264       O268   2.371       .  S
Zr264       O267   2.371       .  S
Zr264       O292   2.367       .  S
Zr264       O294   2.359       .  S
O265        H306   0.990       .  S
O265        H309   0.989       .  S
O266        H299   0.990       .  S
O267      Zr1107   2.364       .  S
O267      Zr1133   2.384       .  S
O268       Zr288   2.399       .  S
O268      Zr1107   2.352       .  S
O268        H295   0.965       .  S
O269       Zr281   2.378       .  S
O269        C271   1.273       .  A
O270      Zr1134   2.477       .  S
O270        C271   1.299       .  A
C271        C679   1.479       .  S
O272       Zr284   2.560       .  S
O272       C1120   1.310       .  A
O273       Zr287   2.409       .  S
O273        C274   1.290       .  A
C274       O1118   1.308       .  A
C274        C404   1.517   1_545  S
O275       Zr284   2.592       .  S
O275        C277   1.317       .  A
O276       Zr288   2.394       .  S
O276        C277   1.287       .  A
C277       C1306   1.533   1_655  S
O278       Zr281   2.400       .  S
O278        C280   1.269       .  A
O279       Zr287   2.469   1_554  S
O279        C280   1.284       .  A
C280        C802   1.497       .  S
Zr281       O282   2.437       .  S
Zr281       O283   2.437       .  S
Zr281       O289   2.381       .  S
Zr281       O290   2.367       .  S
Zr281       O293   2.364       .  S
Zr281       O291   2.377       .  S
O282        H302   0.989       .  S
O282        H307   0.990       .  S
O283        H303   0.990       .  S
Zr284       O286   2.434       .  S
Zr284      O1131   2.434       .  S
Zr284       O294   2.372       .  S
Zr284       O292   2.410       .  S
Zr284      O1136   2.394       .  S
Zr284      O1135   2.394       .  S
O285      Zr1130   2.435       .  S
O285        H301   0.991       .  S
O286        H300   0.990       .  S
O286        H310   0.990       .  S
Zr287      O1102   2.483       .  S
Zr287       O290   2.425   1_556  S
Zr287       O293   2.397   1_556  S
Zr287      O1113   2.383       .  S
Zr287      O1138   2.426       .  S
Zr288      O1116   2.481       .  S
Zr288       O294   2.417       .  S
Zr288      O1135   2.425       .  S
Zr288      O1137   2.382       .  S
O289      Zr1130   2.396       .  S
O289      Zr1134   2.424       .  S
O289        H297   0.965       .  S
O290      Zr1130   2.394       .  S
O291      Zr1134   2.382       .  S
O292      Zr1133   2.427       .  S
O292        H296   0.966       .  S
O293        H298   0.965       .  S
O311       Zr323   2.422       .  S
O311        C313   1.288       .  A
O312       Zr349   2.544       .  S
O312        C313   1.304       .  A
C313        C381   1.532       .  S
O314       Zr326   2.402       .  S
O314        C316   1.270       .  A
O315       Zr350   2.460       .  S
O315        C316   1.286       .  A
C316        C742   1.488       .  S
O317       Zr326   2.402       .  S
O317        C319   1.268       .  A
O318      Zr1195   2.460       .  S
O318        C319   1.288       .  A
C319        C766   1.480       .  S
O320      Zr1169   2.426       .  S
O320        C322   1.288       .  A
O321       Zr350   2.526       .  S
O321        C322   1.299       .  A
C322       C1283   1.527       .  S
Zr323      O1166   2.426       .  S
Zr323       O325   2.427   1_556  S
Zr323      O1170   2.436       .  S
Zr323       O353   2.364   1_556  S
Zr323       O355   2.361   1_556  S
Zr323      O1175   2.362       .  S
Zr323      O1176   2.349       .  S
O324      Zr1169   2.436       .  S
O324        H367   0.990       .  S
O325        H366   0.990       .  S
O325        H370   0.989   1_554  S
Zr326       O327   2.439       .  S
Zr326       O328   2.438       .  S
Zr326       O330   2.391       .  S
Zr326       O329   2.381       .  S
Zr326       O354   2.389       .  S
Zr326       O356   2.381       .  S
O327        H368   0.990       .  S
O327        H371   0.989       .  S
O328        H361   0.990       .  S
O329      Zr1169   2.365       .  S
O329      Zr1195   2.395       .  S
O330       Zr350   2.410       .  S
O330      Zr1169   2.347       .  S
O330        H357   0.963       .  S
O331       Zr343   2.364       .  S
O331        C333   1.271       .  A
O332      Zr1196   2.467   1_554  S
O332        C333   1.293       .  A
C333        C727   1.469       .  S
O334       Zr346   2.566       .  S
O334       C1182   1.311       .  A
O335       Zr349   2.420       .  S
O335        C336   1.294       .  A
C336       O1180   1.312       .  A
C336        C528   1.527   1_565  S
O337       Zr346   2.580       .  S
O337        C339   1.314       .  A
O338       Zr350   2.399       .  S
O338        C339   1.287       .  A
C339       C1058   1.531   1_455  S
O340       Zr343   2.391       .  S
O340        C342   1.267       .  A
O341       Zr349   2.458   1_554  S
O341        C342   1.282       .  A
C342        C751   1.486       .  S
Zr343       O344   2.440       .  S
Zr343       O345   2.437       .  S
Zr343       O351   2.374       .  S
Zr343       O352   2.353       .  S
Zr343       O355   2.361       .  S
Zr343       O353   2.369       .  S
O344        H364   0.990       .  S
O344        H369   0.990       .  S
O345        H365   0.990       .  S
Zr346       O348   2.434       .  S
Zr346      O1193   2.433       .  S
Zr346       O356   2.387       .  S
Zr346       O354   2.388       .  S
Zr346      O1198   2.393       .  S
Zr346      O1197   2.388       .  S
O347      Zr1192   2.434   1_554  S
O347        H363   0.990       .  S
O348        H362   0.990       .  S
O348        H372   0.990       .  S
Zr349      O1164   2.451       .  S
Zr349       O352   2.419   1_556  S
Zr349       O355   2.395   1_556  S
Zr349      O1175   2.392       .  S
Zr349      O1200   2.439       .  S
Zr350      O1178   2.465       .  S
Zr350       O356   2.427       .  S
Zr350      O1197   2.418       .  S
Zr350      O1199   2.381       .  S
O351      Zr1192   2.391   1_554  S
O351      Zr1196   2.416   1_554  S
O351        H359   0.965       .  S
O352      Zr1192   2.389   1_554  S
O353      Zr1196   2.382   1_554  S
O354      Zr1195   2.438       .  S
O354        H358   0.965       .  S
O355        H360   0.965       .  S
O373       Zr385   2.404       .  S
O373        C375   1.268       .  A
O374      Zr1257   2.467       .  S
O374        C375   1.290       .  A
C375        C790   1.468       .  S
O376      Zr1234   2.406       .  S
O376        C378   1.283       .  A
O377       Zr412   2.518       .  S
O377        C378   1.299       .  A
C378        C446   1.515       .  S
O379       Zr388   2.399       .  S
O379        C381   1.282       .  A
O380       Zr411   2.560       .  S
O380        C381   1.308       .  A
O382       Zr385   2.398       .  S
O382        C384   1.269       .  A
O383       Zr412   2.461       .  S
O383        C384   1.283       .  A
C384        C622   1.500       .  S
Zr385       O386   2.437       .  S
Zr385       O387   2.439       .  S
Zr385       O391   2.382       .  S
Zr385       O392   2.387       .  S
Zr385       O415   2.377       .  S
Zr385       O417   2.381       .  S
O386        H429   0.989       .  S
O387        H428   0.990       .  S
O387        H432   0.990       .  S
Zr388      O1222   2.412       .  S
Zr388       O390   2.428   1_556  S
Zr388      O1235   2.435       .  S
Zr388       O416   2.363   1_556  S
Zr388       O418   2.360   1_556  S
Zr388      O1238   2.351       .  S
Zr388      O1237   2.363       .  S
O389      Zr1234   2.437       .  S
O389        H430   0.990       .  S
O389        H433   0.990       .  S
O390        H423   0.990       .  S
O391      Zr1234   2.367       .  S
O391      Zr1257   2.384       .  S
O392       Zr412   2.409       .  S
O392      Zr1234   2.351       .  S
O392        H419   0.964       .  S
O393       Zr405   2.575       .  S
O393        C395   1.312       .  A
O394       Zr412   2.412       .  S
O394        C395   1.290       .  A
O396       Zr408   2.411       .  S
O396        C398   1.272       .  A
O397       Zr411   2.479   1_554  S
O397        C398   1.293       .  A
C398        C775   1.489       .  S
O399       Zr408   2.386       .  S
O399        C401   1.275       .  A
O400      Zr1258   2.458   1_554  S
O400        C401   1.292       .  A
C401        C610   1.463       .  S
O402       Zr405   2.575       .  S
O402       C1250   1.315       .  A
O403       Zr411   2.394       .  S
O403        C404   1.289       .  A
C404       O1248   1.314       .  A
Zr405       O407   2.434       .  S
Zr405      O1252   2.435       .  S
Zr405       O417   2.396       .  S
Zr405       O415   2.385       .  S
Zr405      O1259   2.399       .  S
Zr405      O1260   2.371       .  S
O406      Zr1251   2.436   1_554  S
O406        H426   0.990       .  S
O406        H431   0.990       .  S
O407        H427   0.990       .  S
Zr408       O409   2.434       .  S
Zr408       O410   2.440       .  S
Zr408       O414   2.339       .  S
Zr408       O413   2.376       .  S
Zr408       O418   2.369       .  S
Zr408       O416   2.373       .  S
O409        H425   0.990       .  S
O410        H424   0.990       .  S
O410        H434   0.989       .  S
Zr411      O1220   2.485       .  S
Zr411       O414   2.405   1_556  S
Zr411       O416   2.390   1_556  S
Zr411      O1237   2.377       .  S
Zr411      O1263   2.437       .  S
Zr412      O1246   2.462       .  S
Zr412       O415   2.426       .  S
Zr412      O1259   2.420       .  S
Zr412      O1264   2.386       .  S
O413      Zr1251   2.403   1_554  S
O413      Zr1258   2.423   1_554  S
O413        H421   0.966       .  S
O414      Zr1251   2.360   1_554  S
O416        H420   0.965       .  S
O417      Zr1257   2.438       .  S
O417        H422   0.965       .  S
O418      Zr1258   2.381   1_554  S
O435       Zr447   2.384       .  S
O435        C437   1.279       .  A
O436       Zr473   2.547       .  S
O436        C437   1.306       .  A
C437       C1168   1.520       .  S
O438       Zr450   2.387       .  S
O438        C440   1.264       .  A
O439       Zr474   2.475       .  S
O439        C440   1.285       .  A
C440        C646   1.487       .  S
O441       Zr450   2.385       .  S
O441        C443   1.275       .  A
O442      Zr1319   2.469       .  S
O442        C443   1.295       .  A
C443        C718   1.484       .  S
O444      Zr1293   2.402       .  S
O444        C446   1.283       .  A
O445       Zr474   2.523       .  S
O445        C446   1.300       .  A
Zr447      O1290   2.404       .  S
Zr447       O449   2.437   1_556  S
Zr447      O1294   2.436       .  S
Zr447       O477   2.357   1_556  S
Zr447       O479   2.356   1_556  S
Zr447      O1299   2.376       .  S
Zr447      O1300   2.353       .  S
O448      Zr1293   2.434       .  S
O448        H491   0.989       .  S
O449        H490   0.990       .  S
O449        H494   0.989       .  S
Zr450       O451   2.436       .  S
Zr450       O452   2.434       .  S
Zr450       O454   2.382       .  S
Zr450       O453   2.368       .  S
Zr450       O478   2.370       .  S
Zr450       O480   2.370       .  S
O451        H492   0.990       .  S
O451        H495   0.989       .  S
O452        H485   0.990       .  S
O453      Zr1293   2.369       .  S
O453      Zr1319   2.373       .  S
O454       Zr474   2.405       .  S
O454      Zr1293   2.351       .  S
O454        H481   0.965       .  S
O455       Zr467   2.405       .  S
O455        C457   1.280       .  A
O456      Zr1320   2.476   1_554  S
O456        C457   1.297       .  A
C457        C634   1.494       .  S
O458       Zr470   2.577       .  S
O458       C1306   1.313       .  A
O459       Zr473   2.419       .  S
O459        C460   1.292   1_556  A
C460       O1304   1.313       .  A
C460       C1123   1.535   1_455  S
O461       Zr470   2.570       .  S
O461        C463   1.312       .  A
O462       Zr474   2.403       .  S
O462        C463   1.289       .  A
C463        C519   1.524       .  S
O464       Zr467   2.410       .  S
O464        C466   1.271       .  A
O465       Zr473   2.445   1_554  S
O465        C466   1.282       .  A
C466        C706   1.471       .  S
Zr467       O468   2.439       .  S
Zr467       O469   2.436       .  S
Zr467       O475   2.377       .  S
Zr467       O476   2.360       .  S
Zr467       O479   2.376       .  S
Zr467       O477   2.373       .  S
O468        H488   0.990       .  S
O468        H493   0.990       .  S
O469        H489   0.990       .  S
Zr470       O472   2.436       .  S
Zr470      O1317   2.435       .  S
Zr470       O480   2.384       .  S
Zr470       O478   2.396       .  S
Zr470      O1322   2.381       .  S
Zr470      O1321   2.402       .  S
O471      Zr1316   2.433   1_554  S
O471        H487   0.990       .  S
O472        H486   0.990       .  S
O472        H496   0.990       .  S
Zr473      O1288   2.463       .  S
Zr473       O476   2.418   1_556  S
Zr473       O479   2.405   1_556  S
Zr473      O1299   2.373       .  S
Zr473      O1324   2.415       .  S
Zr474      O1302   2.475       .  S
Zr474       O480   2.427       .  S
Zr474      O1321   2.426       .  S
Zr474      O1323   2.383       .  S
O475      Zr1316   2.404   1_554  S
O475      Zr1320   2.426   1_554  S
O475        H483   0.965       .  S
O476      Zr1316   2.376   1_554  S
O477      Zr1320   2.382   1_554  S
O478      Zr1319   2.420       .  S
O478        H482   0.964       .  S
O479        H484   0.966       .  S
O497       Zr509   2.399       .  S
O497        C499   1.280       .  A
O498       Zr535   2.505       .  S
O498        C499   1.301       .  A
C499        C838   1.504       .  S
O500       Zr512   2.427       .  S
O500        C502   1.287       .  A
O501       Zr536   2.520       .  S
O501        C502   1.299       .  A
O503      Zr1358   2.396       .  S
O503       C1351   1.281       .  A
O504      Zr1381   2.523       .  S
O504       C1351   1.299       .  A
C505       O1349   1.281       .  A
C505       O1350   1.300       .  A
C505       C1097   1.516       .  S
O506       Zr509   2.354       .  S
O506        C508   1.271       .  A
O507       Zr536   2.465       .  S
O507        C508   1.293       .  A
C508        C574   1.453       .  S
Zr509       O510   2.434       .  S
Zr509       O511   2.437       .  S
Zr509       O515   2.356       .  S
Zr509       O516   2.372       .  S
Zr509       O539   2.360       .  S
Zr509       O541   2.344       .  S
O510        H553   0.990       .  S
O511        H552   0.990       .  S
O511        H556   0.990       .  S
Zr512      O1349   2.395       .  S
Zr512       O513   2.433       .  S
Zr512      O1360   2.436       .  S
Zr512       O516   2.351       .  S
Zr512       O515   2.376       .  S
Zr512      O1386   2.354       .  S
Zr512      O1388   2.349       .  S
O513        H554   0.990       .  S
O513        H557   0.990       .  S
O514      Zr1358   2.435       .  S
O514        H547   0.990       .  S
O515       Zr535   2.371       .  S
O516       Zr536   2.385       .  S
O516        H543   0.966       .  S
O517       Zr529   2.570       .  S
O517        C519   1.313       .  A
O518       Zr536   2.412       .  S
O518        C519   1.292       .  A
O520       Zr532   2.398       .  S
O520        C522   1.266       .  A
O521      Zr1381   2.469       .  S
O521        C522   1.286       .  A
C522        C823   1.482       .  S
O523       Zr532   2.402       .  S
O523        C525   1.273       .  A
O524      Zr1382   2.485       .  S
O524        C525   1.295       .  A
C525        C562   1.486       .  S
O526       Zr529   2.588       .  S
O526       C1374   1.316       .  A
O527      Zr1381   2.385       .  S
O527        C528   1.285   1_554  A
C528       O1372   1.316       .  A
Zr529       O531   2.435       .  S
Zr529      O1376   2.435       .  S
Zr529       O541   2.395       .  S
Zr529       O539   2.398       .  S
Zr529      O1383   2.396       .  S
Zr529      O1384   2.374       .  S
O530      Zr1375   2.435       .  S
O530        H550   0.990       .  S
O530        H555   0.990       .  S
O531        H551   0.990       .  S
Zr532       O533   2.435       .  S
Zr532       O534   2.437       .  S
Zr532       O538   2.369       .  S
Zr532       O537   2.383       .  S
Zr532       O542   2.371       .  S
Zr532       O540   2.395       .  S
O533        H549   0.990       .  S
O534        H548   0.990       .  S
O534        H558   0.990       .  S
Zr535      O1350   2.525       .  S
Zr535      O1367   2.465       .  S
Zr535      O1373   2.383       .  S
Zr535       O541   2.408       .  S
Zr535      O1384   2.431       .  S
Zr535      O1386   2.421       .  S
Zr536      O1370   2.485       .  S
Zr536       O539   2.415       .  S
Zr536      O1383   2.426       .  S
Zr536      O1388   2.377       .  S
O537      Zr1375   2.404       .  S
O537      Zr1382   2.428       .  S
O537        H545   0.965       .  S
O538      Zr1375   2.378       .  S
O538      Zr1381   2.429       .  S
O540      Zr1358   2.357       .  S
O540      Zr1381   2.420       .  S
O540        H544   0.964       .  S
O541        H546   0.965       .  S
O542      Zr1358   2.350       .  S
O542      Zr1382   2.375       .  S
C559        C560   1.404       .  A
C559        C564   1.419       .  A
C560        C561   1.408       .  A
C560        H569   1.083       .  S
C561        C562   1.419       .  A
C561        S565   1.802       .  S
C562        C563   1.401       .  A
C563        C564   1.400       .  A
C563        H570   1.084       .  S
C564        S566   1.805       .  S
S565        H568   1.407       .  S
S566        H567   1.407       .  S
C571        C572   1.402       .  A
C571        C576   1.403       .  A
C572        C573   1.398       .  A
C572        H581   1.084       .  S
C573        C574   1.413       .  A
C573        S577   1.806       .  S
C574        C575   1.406       .  A
C575        C576   1.396       .  A
C575        H582   1.084       .  S
C576        S578   1.800       .  S
S577        H580   1.405       .  S
S578        H579   1.404       .  S
C583        C584   1.418       .  A
C583        C588   1.400       .  A
C584        C585   1.406       .  A
C584        H593   1.084       .  S
C585        C586   1.407       .  A
C585        S589   1.798       .  S
C586        C587   1.419       .  A
C587        C588   1.388       .  A
C587        H594   1.083       .  S
C588        S590   1.802       .  S
S589        H592   1.407       .  S
S590        H591   1.408       .  S
C595        C596   1.418       .  A
C595        C600   1.411       .  A
C596        C597   1.408       .  A
C596        H605   1.081       .  S
C597        C598   1.408       .  A
C597        S601   1.805       .  S
C598        C599   1.416       .  A
C599        C600   1.401       .  A
C599        H606   1.084       .  S
C600        S602   1.803       .  S
S601        H604   1.407       .  S
S602        H603   1.404       .  S
C607        C608   1.399       .  A
C607        C612   1.414       .  A
C608        C609   1.401       .  A
C608        H617   1.084       .  S
C609        C610   1.415       .  A
C609        S613   1.804       .  S
C610        C611   1.399       .  A
C611        C612   1.398       .  A
C611        H618   1.084       .  S
C612        S614   1.802       .  S
S613        H616   1.407       .  S
S614        H615   1.406       .  S
C619        C620   1.411       .  A
C619        C624   1.416       .  A
C620        C621   1.403       .  A
C620        H629   1.077       .  S
C621        C622   1.412       .  A
C621        S625   1.807       .  S
C622        C623   1.412       .  A
C623        C624   1.413       .  A
C623        H630   1.082       .  S
C624        S626   1.807       .  S
S625        H628   1.404       .  S
S626        H627   1.406       .  S
C631        C632   1.418       .  A
C631        C636   1.410       .  A
C632        C633   1.401       .  A
C632        H641   1.083       .  S
C633        C634   1.409       .  A
C633        S637   1.800       .  S
C634        C635   1.415       .  A
C635        C636   1.403       .  A
C635        H642   1.084       .  S
C636        S638   1.800       .  S
S637        H640   1.407       .  S
S638        H639   1.406       .  S
C643        C644   1.403       .  A
C643        C648   1.412       .  A
C644        C645   1.412       .  A
C644        H653   1.083       .  S
C645        C646   1.421       .  A
C645        S649   1.807       .  S
C646        C647   1.401       .  A
C647        C648   1.401       .  A
C647        H654   1.081       .  S
C648        S650   1.802       .  S
S649        H652   1.405       .  S
S650        H651   1.407       .  S
C655        C656   1.407       .  A
C655        C660   1.417       .  A
C656        C657   1.411       .  A
C656        H665   1.084       .  S
C657        C658   1.418       .  A
C657        S661   1.804       .  S
C658        C659   1.403       .  A
C659        C660   1.405       .  A
C659        H666   1.083       .  S
C660        S662   1.803       .  S
S661        H664   1.406       .  S
S662        H663   1.407       .  S
C667        C668   1.421       .  A
C667        C672   1.406       .  A
C668        C669   1.398       .  A
C668        H677   1.083       .  S
C669        C670   1.403       .  A
C669        S673   1.800       .  S
C670        C671   1.416       .  A
C671        C672   1.398       .  A
C671        H678   1.084       .  S
C672        S674   1.800       .  S
S673        H676   1.404       .  S
S674        H675   1.407       .  S
C679        C680   1.385       .  A
C679        C684   1.423       .  A
C680        C681   1.395       .  A
C680        H689   1.083       .  S
C681        C682   1.437       .  A
C681        S685   1.801       .  S
C682        C683   1.402       .  A
C683        C684   1.404       .  A
C683        H690   1.083       .  S
C684        S686   1.805       .  S
S685        H688   1.407       .  S
S686        H687   1.406       .  S
C691        C692   1.409       .  A
C691        C696   1.410       .  A
C692        C693   1.407       .  A
C692        H701   1.083       .  S
C693        C694   1.412       .  A
C693        S697   1.805       .  S
C694        C695   1.413       .  A
C695        C696   1.405       .  A
C695        H702   1.084       .  S
C696        S698   1.803       .  S
S697        H700   1.407       .  S
S698        H699   1.404       .  S
C703        C704   1.403       .  A
C703        C708   1.411       .  A
C704        C705   1.404       .  A
C704        H713   1.084       .  S
C705        C706   1.414       .  A
C705        S709   1.804       .  S
C706        C707   1.400       .  A
C707        C708   1.399       .  A
C707        H714   1.084       .  S
C708        S710   1.804       .  S
S709        H712   1.407       .  S
S710        H711   1.405       .  S
C715        C716   1.418       .  A
C715        C720   1.406       .  A
C716        C717   1.392       .  A
C716        H725   1.083       .  S
C717        C718   1.404       .  A
C717        S721   1.801       .  S
C718        C719   1.417       .  A
C719        C720   1.403       .  A
C719        H726   1.084       .  S
C720        S722   1.799       .  S
S721        H724   1.407       .  S
S722        H723   1.407       .  S
C727        C728   1.415       .  A
C727        C732   1.399       .  A
C728        C729   1.400       .  A
C728        H737   1.084       .  S
C729        C730   1.406       .  A
C729        S733   1.798       .  S
C730        C731   1.418       .  A
C731        C732   1.393       .  A
C731        H738   1.081       .  S
C732        S734   1.801       .  S
S733        H736   1.406       .  S
S734        H735   1.406       .  S
C739        C740   1.404       .  A
C739        C744   1.422       .  A
C740        C741   1.410       .  A
C740        H749   1.083       .  S
C741        C742   1.420       .  A
C741        S745   1.802       .  S
C742        C743   1.400       .  A
C743        C744   1.397       .  A
C743        H750   1.082       .  S
C744        S746   1.807       .  S
S745        H748   1.406       .  S
S746        H747   1.407       .  S
C751        C752   1.409       .  A
C751        C756   1.413       .  A
C752        C753   1.400       .  A
C752        H761   1.083       .  S
C753        C754   1.406       .  A
C753        S757   1.798       .  S
C754        C755   1.406       .  A
C755        C756   1.408       .  A
C755        H762   1.083       .  S
C756        S758   1.808       .  S
S757        H760   1.404       .  S
S758        H759   1.406       .  S
C763        C764   1.411       .  A
C763        C768   1.410       .  A
C764        C765   1.391       .  A
C764        H773   1.084       .  S
C765        C766   1.410       .  A
C765        S769   1.800       .  S
C766        C767   1.413       .  A
C767        C768   1.401       .  A
C767        H774   1.084       .  S
C768        S770   1.800       .  S
S769        H772   1.404       .  S
S770        H771   1.408       .  S
C775        C776   1.390       .  A
C775        C780   1.422       .  A
C776        C777   1.397       .  A
C776        H785   1.082       .  S
C777        C778   1.436       .  A
C777        S781   1.811       .  S
C778        C779   1.402       .  A
C779        C780   1.411       .  A
C779        H786   1.083       .  S
C780        S782   1.809       .  S
S781        H784   1.406       .  S
S782        H783   1.407       .  S
C787        C788   1.404       .  A
C787        C792   1.419       .  A
C788        C789   1.406       .  A
C788        H797   1.084       .  S
C789        C790   1.413       .  A
C789        S793   1.803       .  S
C790        C791   1.398       .  A
C791        C792   1.396       .  A
C791        H798   1.084       .  S
C792        S794   1.806       .  S
S793        H796   1.405       .  S
S794        H795   1.407       .  S
C799        C800   1.411       .  A
C799        C804   1.418       .  A
C800        C801   1.405       .  A
C800        H809   1.079       .  S
C801        C802   1.410       .  A
C801        S805   1.804       .  S
C802        C803   1.410       .  A
C803        C804   1.413       .  A
C803        H810   1.083       .  S
C804        S806   1.806       .  S
S805        H808   1.406       .  S
S806        H807   1.407       .  S
C811        C812   1.417       .  A
C811        C816   1.410       .  A
C812        C813   1.399       .  A
C812        H821   1.080       .  S
C813        C814   1.412       .  A
C813        S817   1.812       .  S
C814        C815   1.420       .  A
C815        C816   1.404       .  A
C815        H822   1.083   1_545  S
C816        S818   1.800       .  S
S817        H820   1.406       .  S
S818        H819   1.407       .  S
C823        C824   1.400       .  A
C823        C828   1.419       .  A
C824        C825   1.397       .  A
C824        H833   1.081       .  S
C825        C826   1.411       .  A
C825        S829   1.803       .  S
C826        C827   1.405       .  A
C827        C828   1.410       .  A
C827        H834   1.083       .  S
C828        S830   1.804       .  S
S829        H832   1.408       .  S
S830        H831   1.406       .  S
C835        C836   1.422       .  A
C835        C840   1.414       .  A
C836        C837   1.413       .  A
C836        H845   1.083       .  S
C837        C838   1.408       .  A
C837        S841   1.797       .  S
C838        C839   1.414       .  A
C839        C840   1.407       .  A
C839        H846   1.084       .  S
C840        S842   1.800       .  S
S841        H844   1.407       .  S
S842        H843   1.407       .  S
O847       Zr859   2.515       .  S
O847        C849   1.301       .  A
O848       Zr885   2.395       .  S
O848        C849   1.279   1_565  A
C849       C1681   1.512       .  S
O850       Zr862   2.493       .  S
O850        C852   1.294       .  A
O851       Zr886   2.372   1_565  S
O851        C852   1.274       .  A
C852       C1600   1.480       .  S
O853       Zr862   2.470       .  S
O853        C855   1.284       .  A
O854       Zr885   2.370       .  S
O854        C855   1.259       .  A
C855       C1609   1.485       .  S
O856       Zr859   2.512       .  S
O856        C858   1.298       .  A
O857       Zr886   2.333       .  S
O857        C858   1.269       .  A
C858       C1672   1.472       .  S
Zr859       O860   2.434       .  S
Zr859       O861   2.436       .  S
Zr859       O865   2.282   1_545  S
Zr859       O889   2.296       .  S
Zr859       O866   2.393   1_545  S
Zr859       O891   2.388       .  S
O860        H903   0.990       .  S
O861        H902   0.990       .  S
O861        H906   0.990       .  S
Zr862       O863   2.437       .  S
Zr862       O864   2.435       .  S
Zr862       O865   2.296       .  S
Zr862       O892   2.290       .  S
Zr862       O866   2.370       .  S
Zr862       O890   2.395       .  S
O863        H904   0.990       .  S
O863        H907   0.990       .  S
O864        H897   0.990       .  S
O865       Zr885   2.262       .  S
O866       Zr886   2.375   1_565  S
O866        H893   0.966       .  S
O867       Zr879   2.515       .  S
O867        C869   1.294       .  A
O868       Zr886   2.382       .  S
O868        C869   1.268       .  A
C869       C1645   1.508       .  S
O870       Zr882   2.519       .  S
O870        C872   1.300       .  A
O871       Zr885   2.329       .  S
O871        C872   1.267       .  A
C872       C1633   1.473       .  S
O873       Zr882   2.541       .  S
O873        C875   1.306       .  A
O874       Zr886   2.343   1_565  S
O874        C875   1.266       .  A
C875       C1624   1.501       .  S
O876       Zr879   2.506       .  S
O876        C878   1.299       .  A
O877       Zr885   2.367   1_545  S
O877        C878   1.274       .  A
C878       C1660   1.505       .  S
Zr879       O880   2.437       .  S
Zr879       O881   2.435       .  S
Zr879       O888   2.291   1_545  S
Zr879       O889   2.298       .  S
Zr879       O887   2.388       .  S
Zr879       O891   2.385       .  S
O880        H900   0.990       .  S
O880        H905   0.990       .  S
O881        H901   0.991       .  S
Zr882       O883   2.435       .  S
Zr882       O884   2.438       .  S
Zr882       O888   2.295       .  S
Zr882       O892   2.294       .  S
Zr882       O887   2.348   1_565  S
Zr882       O890   2.376       .  S
O883        H899   0.990       .  S
O884        H898   0.990       .  S
O884        H908   0.989       .  S
Zr885       O888   2.271       .  S
Zr885       O890   2.393       .  S
Zr885       O891   2.378   1_565  S
Zr886       O889   2.264       .  S
Zr886       O892   2.261   1_545  S
Zr886       O887   2.382       .  S
O887        H895   0.962       .  S
O890        H894   0.966       .  S
O891        H896   0.966       .  S
O909       Zr921   2.517       .  S
O909        C911   1.299       .  A
O910       Zr947   2.344       .  S
O910        C911   1.268       .  A
C911       C1585   1.483       .  S
O912       Zr924   2.525       .  S
O912        C914   1.300       .  A
O913       Zr948   2.357       .  S
O913        C914   1.267       .  A
C914       C1501   1.484       .  S
O915       Zr924   2.516       .  S
O915        C917   1.302       .  A
O916       Zr947   2.322   1_655  S
O916        C917   1.266       .  A
C917       C1513   1.490       .  S
O918       Zr921   2.519       .  S
O918        C920   1.301       .  A
O919       Zr948   2.322   1_455  S
O919        C920   1.266       .  A
C920       C1576   1.488       .  S
Zr921       O922   2.436       .  S
Zr921       O923   2.436       .  S
Zr921       O927   2.279       .  S
Zr921       O951   2.294       .  S
Zr921       O928   2.360   1_455  S
Zr921       O953   2.376       .  S
O922        H965   0.990       .  S
O923        H964   0.990       .  S
O923        H968   0.990       .  S
Zr924       O925   2.437       .  S
Zr924       O926   2.435       .  S
Zr924       O927   2.282   1_655  S
Zr924       O954   2.299       .  S
Zr924       O928   2.381       .  S
Zr924       O952   2.386       .  S
O925        H966   0.990       .  S
O925        H969   0.990       .  S
O926        H959   0.990       .  S
O927       Zr947   2.259       .  S
O928       Zr948   2.379       .  S
O928        H955   0.965       .  S
O929       Zr941   2.478       .  S
O929        C931   1.292       .  A
O930       Zr948   2.378   1_455  S
O930        C931   1.274       .  A
C931       C1549   1.465       .  S
O932       Zr944   2.496       .  S
O932        C934   1.297       .  A
O933       Zr947   2.382   1_655  S
O933        C934   1.276       .  A
C934       C1537   1.485       .  S
O935       Zr944   2.513       .  S
O935        C937   1.292       .  A
O936       Zr948   2.368       .  S
O936        C937   1.257       .  A
C937       C1528   1.506       .  S
O938       Zr941   2.498       .  S
O938        C940   1.286       .  A
O939       Zr947   2.360       .  S
O939        C940   1.253       .  A
C940       C1561   1.493       .  S
Zr941       O942   2.438       .  S
Zr941       O943   2.435       .  S
Zr941       O950   2.281       .  S
Zr941       O951   2.305       .  S
Zr941       O949   2.367   1_455  S
Zr941       O953   2.387       .  S
O942        H962   0.990       .  S
O942        H967   0.990       .  S
O943        H963   0.990       .  S
Zr944       O945   2.434       .  S
Zr944       O946   2.436       .  S
Zr944       O950   2.287   1_655  S
Zr944       O954   2.300       .  S
Zr944       O949   2.397       .  S
Zr944       O952   2.401       .  S
O945        H961   0.990       .  S
O946        H960   0.990       .  S
O946        H970   0.990       .  S
Zr947       O950   2.258       .  S
Zr947       O952   2.382   1_455  S
Zr947       O953   2.378       .  S
Zr948       O951   2.262   1_655  S
Zr948       O954   2.259       .  S
Zr948       O949   2.383       .  S
O949        H957   0.965       .  S
O952        H956   0.966       .  S
O953        H958   0.967       .  S
O971       Zr983   2.486       .  S
O971        C973   1.285       .  A
O972      Zr1009   2.380       .  S
O972        C973   1.264       .  A
C973       C1465   1.503       .  S
O974       Zr986   2.519       .  S
O974        C976   1.303       .  A
O975      Zr1010   2.346       .  S
O975        C976   1.271       .  A
C976       C1477   1.492       .  S
O977       Zr986   2.534       .  S
O977        C979   1.303       .  A
O978      Zr1009   2.338       .  S
O978        C979   1.270       .  A
C979       C1489   1.480       .  S
O980       Zr983   2.478       .  S
O980        C982   1.293       .  A
O981      Zr1010   2.376       .  S
O981        C982   1.273       .  A
C982       C1453   1.468       .  S
Zr983       O984   2.435       .  S
Zr983       O985   2.436       .  S
Zr983       O989   2.298       .  S
Zr983      O1013   2.294       .  S
Zr983       O990   2.388       .  S
Zr983      O1015   2.401       .  S
O984       H1027   0.990       .  S
O985       H1026   0.990       .  S
O985       H1030   0.990       .  S
Zr986       O987   2.437       .  S
Zr986       O988   2.434       .  S
Zr986       O989   2.291       .  S
Zr986      O1016   2.284       .  S
Zr986       O990   2.384       .  S
Zr986      O1014   2.379       .  S
O987       H1028   0.990       .  S
O987       H1031   0.990       .  S
O988       H1021   0.990       .  S
O989      Zr1009   2.258       .  S
O990      Zr1010   2.380       .  S
O990       H1017   0.965       .  S
O991      Zr1003   2.497       .  S
O991        C993   1.285       .  A
O992      Zr1010   2.361       .  S
O992        C993   1.250       .  A
C993       C1432   1.489       .  S
O994      Zr1006   2.478       .  S
O994        C996   1.294       .  A
O995      Zr1009   2.340       .  S
O995        C996   1.270       .  A
C996       C1417   1.455       .  S
O997      Zr1006   2.523       .  S
O997        C999   1.301       .  A
O998      Zr1010   2.337       .  S
O998        C999   1.268       .  A
C999       C1405   1.483       .  S
O1000     Zr1003   2.514       .  S
O1000      C1002   1.300       .  A
O1001     Zr1009   2.358       .  S
O1001      C1002   1.273       .  A
C1002      C1444   1.494       .  S
Zr1003     O1004   2.436       .  S
Zr1003     O1005   2.436       .  S
Zr1003     O1012   2.294       .  S
Zr1003     O1013   2.300       .  S
Zr1003     O1011   2.398       .  S
Zr1003     O1015   2.357       .  S
O1004      H1024   0.990       .  S
O1004      H1029   0.990       .  S
O1005      H1025   0.990       .  S
Zr1006     O1007   2.435       .  S
Zr1006     O1008   2.436       .  S
Zr1006     O1012   2.302       .  S
Zr1006     O1016   2.269       .  S
Zr1006     O1011   2.356       .  S
Zr1006     O1014   2.367       .  S
O1007      H1023   0.990       .  S
O1008      H1022   0.990       .  S
O1008      H1032   0.990       .  S
Zr1009     O1012   2.261       .  S
Zr1009     O1014   2.380       .  S
Zr1009     O1015   2.380       .  S
Zr1010     O1013   2.270       .  S
Zr1010     O1016   2.257       .  S
Zr1010     O1011   2.390       .  S
O1011      H1019   0.968       .  S
O1014      H1018   0.966       .  S
O1015      H1020   0.964       .  S
O1033     Zr1045   2.402       .  S
O1033      C1035   1.283       .  A
O1034     Zr1071   2.544       .  S
O1034      C1035   1.304       .  A
O1036     Zr1048   2.412       .  S
O1036      C1038   1.275       .  A
O1037     Zr1072   2.456   1_556  S
O1037      C1038   1.286       .  A
C1038      C1441   1.495       .  S
O1039     Zr1048   2.376       .  S
O1039      C1041   1.275       .  A
O1040      C1041   1.294       .  A
C1041      C1516   1.482       .  S
O1042      C1044   1.282       .  A
O1043     Zr1072   2.565       .  S
O1043      C1044   1.310       .  A
C1044      C1348   1.532       .  S
Zr1045     O1047   2.438       .  S
Zr1045     O1075   2.368       .  S
Zr1045     O1077   2.355       .  S
O1046      H1089   0.990       .  S
O1047      H1088   0.990       .  S
O1047      H1092   0.990       .  S
Zr1048     O1049   2.438       .  S
Zr1048     O1050   2.434       .  S
Zr1048     O1052   2.358       .  S
Zr1048     O1051   2.370       .  S
Zr1048     O1076   2.373       .  S
Zr1048     O1078   2.348       .  S
O1049      H1090   0.991       .  S
O1049      H1093   0.990       .  S
O1050      H1083   0.991       .  S
O1052     Zr1072   2.385   1_556  S
O1052      H1079   0.965       .  S
O1053     Zr1065   2.374       .  S
O1053      C1055   1.275       .  A
O1054      C1055   1.296       .  A
C1055      C1429   1.475       .  S
O1056     Zr1068   2.565       .  S
O1057     Zr1071   2.419       .  S
O1057      C1058   1.292       .  A
O1059     Zr1068   2.572       .  S
O1059      C1061   1.312       .  A
O1060     Zr1072   2.405       .  S
O1060      C1061   1.289       .  A
C1061      C1241   1.525   1_554  S
O1062     Zr1065   2.391       .  S
O1062      C1064   1.266       .  A
O1063     Zr1071   2.476       .  S
O1063      C1064   1.286       .  A
C1064      C1504   1.490       .  S
Zr1065     O1066   2.441       .  S
Zr1065     O1067   2.436       .  S
Zr1065     O1073   2.380       .  S
Zr1065     O1074   2.369       .  S
Zr1065     O1077   2.371       .  S
Zr1065     O1075   2.369       .  S
O1066      H1086   0.990       .  S
O1066      H1091   0.990       .  S
O1067      H1087   0.990       .  S
Zr1068     O1070   2.439   1_554  S
Zr1068     O1078   2.379   1_554  S
Zr1068     O1076   2.384   1_554  S
O1069      H1085   0.990       .  S
O1070      H1084   0.990       .  S
O1070      H1094   0.990       .  S
Zr1071     O1074   2.424       .  S
Zr1071     O1077   2.403       .  S
Zr1072     O1078   2.409   1_554  S
O1073      H1081   0.965       .  S
O1076      H1080   0.964       .  S
O1077      H1082   0.965       .  S
O1095     Zr1107   2.407       .  S
O1095      C1097   1.284       .  A
O1096     Zr1133   2.521       .  S
O1096      C1097   1.299       .  A
O1098     Zr1110   2.397       .  S
O1098      C1100   1.268       .  A
O1099     Zr1134   2.465   1_556  S
O1099      C1100   1.285       .  A
C1100      C1540   1.492       .  S
O1101     Zr1110   2.387       .  S
O1101      C1103   1.277       .  A
O1102      C1103   1.297       .  A
C1103      C1657   1.504       .  S
O1104      C1106   1.283       .  A
O1105     Zr1134   2.540       .  S
O1105      C1106   1.304       .  A
Zr1107     O1109   2.436       .  S
Zr1107     O1137   2.370       .  S
Zr1107     O1139   2.352       .  S
O1108      H1151   0.990       .  S
O1109      H1150   0.990       .  S
O1109      H1154   0.990       .  S
Zr1110     O1111   2.436       .  S
Zr1110     O1112   2.434       .  S
Zr1110     O1114   2.373       .  S
Zr1110     O1113   2.370       .  S
Zr1110     O1138   2.364       .  S
Zr1110     O1140   2.356       .  S
O1111      H1152   0.990       .  S
O1111      H1155   0.990       .  S
O1112      H1145   0.990       .  S
O1114     Zr1134   2.403   1_556  S
O1114      H1141   0.965       .  S
O1115     Zr1127   2.375       .  S
O1115      C1117   1.272       .  A
O1116      C1117   1.300       .  A
C1117      C1525   1.480       .  S
O1118     Zr1130   2.553   1_556  S
O1119     Zr1133   2.409       .  S
O1119      C1120   1.290       .  A
C1120      C1250   1.521   1_545  S
O1121     Zr1130   2.589       .  S
O1121      C1123   1.316       .  A
O1122     Zr1134   2.402       .  S
O1122      C1123   1.288       .  A
O1124     Zr1127   2.399       .  S
O1124      C1126   1.268       .  A
O1125     Zr1133   2.471       .  S
O1125      C1126   1.284       .  A
C1126      C1648   1.500       .  S
Zr1127     O1128   2.437       .  S
Zr1127     O1129   2.435       .  S
Zr1127     O1135   2.375       .  S
Zr1127     O1136   2.363       .  S
Zr1127     O1139   2.366       .  S
Zr1127     O1137   2.380       .  S
O1128      H1148   0.990       .  S
O1128      H1153   0.990       .  S
O1129      H1149   0.990       .  S
Zr1130     O1132   2.434   1_554  S
Zr1130     O1140   2.368   1_554  S
Zr1130     O1138   2.412   1_554  S
O1131      H1147   0.990       .  S
O1132      H1146   0.990       .  S
O1132      H1156   0.990       .  S
Zr1133     O1136   2.425       .  S
Zr1133     O1139   2.396       .  S
Zr1134     O1140   2.417   1_554  S
O1135      H1143   0.965       .  S
O1138      H1142   0.966       .  S
O1139      H1144   0.964       .  S
O1157     Zr1169   2.417       .  S
O1157      C1159   1.286       .  A
O1158     Zr1195   2.542       .  S
O1158      C1159   1.304       .  A
C1159      C1227   1.529       .  S
O1160     Zr1172   2.408       .  S
O1160      C1162   1.271       .  A
O1161     Zr1196   2.459       .  S
O1161      C1162   1.286       .  A
C1162      C1588   1.485       .  S
O1163     Zr1172   2.406       .  S
O1163      C1165   1.270       .  A
O1164      C1165   1.287       .  A
C1165      C1612   1.476       .  S
O1166      C1168   1.289       .  A
O1167     Zr1196   2.513       .  S
O1167      C1168   1.297       .  A
Zr1169     O1171   2.426       .  S
Zr1169     O1199   2.364       .  S
Zr1169     O1201   2.362       .  S
O1170      H1213   0.990       .  S
O1171      H1212   0.990       .  S
O1171      H1216   0.989       .  S
Zr1172     O1173   2.438       .  S
Zr1172     O1174   2.437       .  S
Zr1172     O1176   2.386       .  S
Zr1172     O1175   2.378       .  S
Zr1172     O1200   2.389       .  S
Zr1172     O1202   2.381       .  S
O1173      H1214   0.990       .  S
O1173      H1217   0.990       .  S
O1174      H1207   0.990       .  S
O1176     Zr1196   2.407       .  S
O1176      H1203   0.964       .  S
O1177     Zr1189   2.379       .  S
O1177      C1179   1.275       .  A
O1178      C1179   1.293       .  A
C1179      C1573   1.474       .  S
O1180     Zr1192   2.567       .  S
O1181     Zr1195   2.421       .  S
O1181      C1182   1.294       .  A
C1182      C1374   1.526   1_565  S
O1183     Zr1192   2.573       .  S
O1183      C1185   1.312       .  A
O1184     Zr1196   2.401       .  S
O1184      C1185   1.287       .  A
O1186     Zr1189   2.399       .  S
O1186      C1188   1.269       .  A
O1187     Zr1195   2.469       .  S
O1187      C1188   1.285       .  A
C1188      C1597   1.488       .  S
Zr1189     O1190   2.441       .  S
Zr1189     O1191   2.438       .  S
Zr1189     O1197   2.378       .  S
Zr1189     O1198   2.358       .  S
Zr1189     O1201   2.361       .  S
Zr1189     O1199   2.368       .  S
O1190      H1210   0.990       .  S
O1190      H1215   0.990       .  S
O1191      H1211   0.990       .  S
Zr1192     O1194   2.436       .  S
Zr1192     O1202   2.388       .  S
Zr1192     O1200   2.390       .  S
O1193      H1209   0.990       .  S
O1194      H1208   0.990       .  S
O1194      H1218   0.990       .  S
Zr1195     O1198   2.418       .  S
Zr1195     O1201   2.393       .  S
Zr1196     O1202   2.424       .  S
O1197      H1205   0.965       .  S
O1200      H1204   0.965       .  S
O1201      H1206   0.965       .  S
O1219     Zr1231   2.395       .  S
O1219      C1221   1.267       .  A
O1220      C1221   1.294       .  A
C1221      C1636   1.472       .  S
O1222      C1224   1.285       .  A
O1223     Zr1258   2.528       .  S
O1223      C1224   1.301       .  A
C1224      C1292   1.522       .  S
O1225     Zr1234   2.404       .  S
O1225      C1227   1.284       .  A
O1226     Zr1257   2.550       .  S
O1226      C1227   1.306       .  A
O1228     Zr1231   2.403       .  S
O1228      C1230   1.270       .  A
O1229     Zr1258   2.454       .  S
O1229      C1230   1.283       .  A
C1230      C1468   1.494       .  S
Zr1231     O1232   2.437       .  S
Zr1231     O1233   2.439       .  S
Zr1231     O1237   2.379       .  S
Zr1231     O1238   2.384       .  S
Zr1231     O1261   2.372       .  S
Zr1231     O1263   2.387       .  S
O1232      H1275   0.989       .  S
O1233      H1274   0.990       .  S
O1233      H1278   0.990       .  S
Zr1234     O1236   2.432       .  S
Zr1234     O1262   2.359       .  S
Zr1234     O1264   2.362       .  S
O1235      H1276   0.990       .  S
O1235      H1279   0.990       .  S
O1236      H1269   0.990       .  S
O1238     Zr1258   2.399       .  S
O1238      H1265   0.965       .  S
O1239     Zr1251   2.562       .  S
O1239      C1241   1.310       .  A
O1240     Zr1258   2.407       .  S
O1240      C1241   1.289       .  A
O1242     Zr1254   2.413       .  S
O1242      C1244   1.273       .  A
O1243     Zr1257   2.470       .  S
O1243      C1244   1.291       .  A
C1244      C1621   1.491       .  S
O1245     Zr1254   2.390       .  S
O1245      C1247   1.276       .  A
O1246      C1247   1.293       .  A
C1247      C1456   1.463       .  S
O1248     Zr1251   2.574       .  S
O1249     Zr1257   2.399       .  S
O1249      C1250   1.290       .  A
Zr1251     O1253   2.434       .  S
Zr1251     O1263   2.393       .  S
Zr1251     O1261   2.389       .  S
O1252      H1272   0.990       .  S
O1252      H1277   0.990       .  S
O1253      H1273   0.990       .  S
Zr1254     O1255   2.434       .  S
Zr1254     O1256   2.441       .  S
Zr1254     O1260   2.342       .  S
Zr1254     O1259   2.381       .  S
Zr1254     O1264   2.371       .  S
Zr1254     O1262   2.369       .  S
O1255      H1271   0.990       .  S
O1256      H1270   0.990       .  S
O1256      H1280   0.989       .  S
Zr1257     O1260   2.407       .  S
Zr1257     O1262   2.388       .  S
Zr1258     O1261   2.427       .  S
O1259      H1267   0.965       .  S
O1262      H1266   0.965       .  S
O1263      H1268   0.965       .  S
O1281     Zr1293   2.391       .  S
O1281      C1283   1.280       .  A
O1282     Zr1319   2.556       .  S
O1282      C1283   1.307       .  A
O1284     Zr1296   2.384       .  S
O1284      C1286   1.263       .  A
O1285     Zr1320   2.472       .  S
O1285      C1286   1.284       .  A
C1286      C1492   1.484       .  S
O1287     Zr1296   2.388       .  S
O1287      C1289   1.277       .  A
O1288      C1289   1.294       .  A
C1289      C1564   1.478       .  S
O1290      C1292   1.282       .  A
O1291     Zr1320   2.537       .  S
O1291      C1292   1.303       .  A
Zr1293     O1295   2.437       .  S
Zr1293     O1323   2.362       .  S
Zr1293     O1325   2.356       .  S
O1294      H1337   0.990       .  S
O1295      H1336   0.990       .  S
O1295      H1340   0.990       .  S
Zr1296     O1297   2.439       .  S
Zr1296     O1298   2.435       .  S
Zr1296     O1300   2.382       .  S
Zr1296     O1299   2.361       .  S
Zr1296     O1324   2.366       .  S
Zr1296     O1326   2.372       .  S
O1297      H1338   0.990       .  S
O1297      H1341   0.990       .  S
O1298      H1331   0.990       .  S
O1300     Zr1320   2.406       .  S
O1300      H1327   0.965       .  S
O1301     Zr1313   2.396       .  S
O1301      C1303   1.278       .  A
O1302      C1303   1.296       .  A
C1303      C1480   1.486       .  S
O1304     Zr1316   2.577   1_554  S
O1305     Zr1319   2.421       .  S
O1305      C1306   1.293       .  A
O1307     Zr1316   2.574   1_554  S
O1307      C1309   1.313       .  A
O1308     Zr1320   2.412   1_554  S
O1308      C1309   1.290       .  A
C1309      C1365   1.530       .  S
O1310     Zr1313   2.405       .  S
O1310      C1312   1.271       .  A
O1311     Zr1319   2.447       .  S
O1311      C1312   1.283       .  A
C1312      C1552   1.469       .  S
Zr1313     O1314   2.440       .  S
Zr1313     O1315   2.435       .  S
Zr1313     O1321   2.376       .  S
Zr1313     O1322   2.359       .  S
Zr1313     O1325   2.371       .  S
Zr1313     O1323   2.369       .  S
O1314      H1334   0.990       .  S
O1314      H1339   0.990       .  S
O1315      H1335   0.990       .  S
Zr1316     O1318   2.435       .  S
Zr1316     O1326   2.379       .  S
Zr1316     O1324   2.406       .  S
O1317      H1333   0.990       .  S
O1318      H1332   0.990       .  S
O1318      H1342   0.990       .  S
Zr1319     O1322   2.421       .  S
Zr1319     O1325   2.399       .  S
Zr1320     O1326   2.426       .  S
O1321      H1329   0.965       .  S
O1324      H1328   0.965       .  S
O1325      H1330   0.966       .  S
O1343     Zr1355   2.402       .  S
O1343      C1345   1.280       .  A
O1344     Zr1381   2.509   1_556  S
O1344      C1345   1.302       .  A
C1345      C1684   1.505       .  S
O1346     Zr1358   2.433       .  S
O1346      C1348   1.289       .  A
O1347     Zr1382   2.533       .  S
O1347      C1348   1.301       .  A
O1352     Zr1355   2.350       .  S
O1352      C1354   1.271       .  A
O1353     Zr1382   2.458   1_556  S
O1353      C1354   1.292       .  A
C1354      C1420   1.450       .  S
Zr1355     O1356   2.435       .  S
Zr1355     O1357   2.437       .  S
Zr1355     O1361   2.350       .  S
Zr1355     O1362   2.372       .  S
Zr1355     O1385   2.363       .  S
Zr1355     O1387   2.350       .  S
O1356      H1399   0.990       .  S
O1357      H1398   0.990       .  S
O1357      H1402   0.990       .  S
Zr1358     O1359   2.426   1_554  S
Zr1358     O1362   2.349   1_554  S
Zr1358     O1361   2.372   1_554  S
O1359      H1400   0.990       .  S
O1359      H1403   0.989   1_556  S
O1360      H1393   0.990       .  S
O1361     Zr1381   2.369   1_556  S
O1362     Zr1382   2.387   1_556  S
O1362      H1389   0.966       .  S
O1363     Zr1375   2.575       .  S
O1363      C1365   1.314       .  A
O1364     Zr1382   2.415       .  S
O1364      C1365   1.292       .  A
O1366     Zr1378   2.397       .  S
O1366      C1368   1.266       .  A
O1367      C1368   1.285       .  A
C1368      C1669   1.480       .  S
O1369     Zr1378   2.397       .  S
O1369      C1371   1.271       .  A
O1370      C1371   1.294       .  A
C1371      C1408   1.485       .  S
O1372     Zr1375   2.588   1_556  S
O1373      C1374   1.285       .  A
Zr1375     O1377   2.435   1_554  S
Zr1375     O1387   2.396   1_554  S
Zr1375     O1385   2.393   1_554  S
O1376      H1396   0.990       .  S
O1376      H1401   0.990       .  S
O1377      H1397   0.990       .  S
Zr1378     O1379   2.435       .  S
Zr1378     O1380   2.434       .  S
Zr1378     O1384   2.367       .  S
Zr1378     O1383   2.378       .  S
Zr1378     O1388   2.373       .  S
Zr1378     O1386   2.398       .  S
O1379      H1395   0.990       .  S
O1380      H1394   0.990       .  S
O1380      H1404   0.990       .  S
Zr1381     O1387   2.412   1_554  S
Zr1382     O1385   2.418   1_554  S
O1383      H1391   0.965       .  S
O1386      H1390   0.964       .  S
O1387      H1392   0.965       .  S
C1405      C1406   1.402       .  A
C1405      C1410   1.422       .  A
C1406      C1407   1.406       .  A
C1406      H1415   1.083       .  S
C1407      C1408   1.418       .  A
C1407      S1411   1.802       .  S
C1408      C1409   1.401       .  A
C1409      C1410   1.401       .  A
C1409      H1416   1.084       .  S
C1410      S1412   1.806       .  S
S1411      H1414   1.407       .  S
S1412      H1413   1.407       .  S
C1417      C1418   1.402       .  A
C1417      C1422   1.403       .  A
C1418      C1419   1.396       .  A
C1418      H1427   1.084       .  S
C1419      C1420   1.413       .  A
C1419      S1423   1.806       .  S
C1420      C1421   1.406       .  A
C1421      C1422   1.397       .  A
C1421      H1428   1.083       .  S
C1422      S1424   1.800       .  S
S1423      H1426   1.406       .  S
S1424      H1425   1.405       .  S
C1429      C1430   1.419       .  A
C1429      C1434   1.400       .  A
C1430      C1431   1.403       .  A
C1430      H1439   1.084       .  S
C1431      C1432   1.405       .  A
C1431      S1435   1.799       .  S
C1432      C1433   1.419       .  A
C1433      C1434   1.388       .  A
C1433      H1440   1.082       .  S
C1434      S1436   1.802       .  S
S1435      H1438   1.407       .  S
S1436      H1437   1.407       .  S
C1441      C1442   1.415       .  A
C1441      C1446   1.410       .  A
C1442      C1443   1.401       .  A
C1442      H1451   1.082       .  S
C1443      C1444   1.409       .  A
C1443      S1447   1.800       .  S
C1444      C1445   1.416       .  A
C1445      C1446   1.399       .  A
C1445      H1452   1.084       .  S
C1446      S1448   1.803       .  S
S1447      H1450   1.405       .  S
S1448      H1449   1.404       .  S
C1453      C1454   1.400       .  A
C1453      C1458   1.412       .  A
C1454      C1455   1.402       .  A
C1454      H1463   1.083       .  S
C1455      C1456   1.414       .  A
C1455      S1459   1.804       .  S
C1456      C1457   1.401       .  A
C1457      C1458   1.398       .  A
C1457      H1464   1.084       .  S
C1458      S1460   1.803       .  S
S1459      H1462   1.407       .  S
S1460      H1461   1.406       .  S
C1465      C1466   1.411       .  A
C1465      C1470   1.416       .  A
C1466      C1467   1.400       .  A
C1466      H1475   1.077       .  S
C1467      C1468   1.411       .  A
C1467      S1471   1.805       .  S
C1468      C1469   1.411       .  A
C1469      C1470   1.411       .  A
C1469      H1476   1.082       .  S
C1470      S1472   1.807       .  S
S1471      H1474   1.406       .  S
S1472      H1473   1.407       .  S
C1477      C1478   1.418       .  A
C1477      C1482   1.407       .  A
C1478      C1479   1.400       .  A
C1478      H1487   1.084       .  S
C1479      C1480   1.406       .  A
C1479      S1483   1.800       .  S
C1480      C1481   1.415       .  A
C1481      C1482   1.402       .  A
C1481      H1488   1.084       .  S
C1482      S1484   1.801       .  S
S1483      H1486   1.407       .  S
S1484      H1485   1.407       .  S
C1489      C1490   1.404       .  A
C1489      C1494   1.413       .  A
C1490      C1491   1.410       .  A
C1490      H1499   1.083       .  S
C1491      C1492   1.421       .  A
C1491      S1495   1.808       .  S
C1492      C1493   1.401       .  A
C1493      C1494   1.402       .  A
C1493      H1500   1.083       .  S
C1494      S1496   1.802       .  S
S1495      H1498   1.405       .  S
S1496      H1497   1.407       .  S
C1501      C1502   1.405       .  A
C1501      C1506   1.417       .  A
C1502      C1503   1.409       .  A
C1502      H1511   1.084       .  S
C1503      C1504   1.418       .  A
C1503      S1507   1.803       .  S
C1504      C1505   1.404       .  A
C1505      C1506   1.407       .  A
C1505      H1512   1.083       .  S
C1506      S1508   1.805       .  S
S1507      H1510   1.406       .  S
S1508      H1509   1.407       .  S
C1513      C1514   1.424       .  A
C1513      C1518   1.405       .  A
C1514      C1515   1.397       .  A
C1514      H1523   1.083       .  S
C1515      C1516   1.400       .  A
C1515      S1519   1.800       .  S
C1516      C1517   1.415       .  A
C1517      C1518   1.395       .  A
C1517      H1524   1.083       .  S
C1518      S1520   1.800       .  S
S1519      H1522   1.405       .  S
S1520      H1521   1.408       .  S
C1525      C1526   1.385       .  A
C1525      C1530   1.423       .  A
C1526      C1527   1.395       .  A
C1526      H1535   1.082       .  S
C1527      C1528   1.437       .  A
C1527      S1531   1.800       .  S
C1528      C1529   1.403       .  A
C1529      C1530   1.405       .  A
C1529      H1536   1.083       .  S
C1530      S1532   1.806       .  S
S1531      H1534   1.406       .  S
S1532      H1533   1.405       .  S
C1537      C1538   1.410       .  A
C1537      C1542   1.410       .  A
C1538      C1539   1.406       .  A
C1538      H1547   1.083       .  S
C1539      C1540   1.411       .  A
C1539      S1543   1.806       .  S
C1540      C1541   1.412       .  A
C1541      C1542   1.403       .  A
C1541      H1548   1.084       .  S
C1542      S1544   1.803       .  S
S1543      H1546   1.407       .  S
S1544      H1545   1.403       .  S
C1549      C1550   1.401       .  A
C1549      C1554   1.412       .  A
C1550      C1551   1.401       .  A
C1550      H1559   1.084       .  S
C1551      C1552   1.412       .  A
C1551      S1555   1.802       .  S
C1552      C1553   1.401       .  A
C1553      C1554   1.399       .  A
C1553      H1560   1.084       .  S
C1554      S1556   1.805       .  S
S1555      H1558   1.407       .  S
S1556      H1557   1.405       .  S
C1561      C1562   1.418       .  A
C1561      C1566   1.408       .  A
C1562      C1563   1.390       .  A
C1562      H1571   1.083       .  S
C1563      C1564   1.401       .  A
C1563      S1567   1.800       .  S
C1564      C1565   1.416       .  A
C1565      C1566   1.405       .  A
C1565      H1572   1.084       .  S
C1566      S1568   1.799       .  S
S1567      H1570   1.407       .  S
S1568      H1569   1.407       .  S
C1573      C1574   1.414       .  A
C1573      C1578   1.401       .  A
C1574      C1575   1.399       .  A
C1574      H1583   1.084       .  S
C1575      C1576   1.407       .  A
C1575      S1579   1.797       .  S
C1576      C1577   1.419       .  A
C1577      C1578   1.395       .  A
C1577      H1584   1.083       .  S
C1578      S1580   1.801       .  S
S1579      H1582   1.407       .  S
S1580      H1581   1.407       .  S
C1585      C1586   1.404       .  A
C1585      C1590   1.418       .  A
C1586      C1587   1.409       .  A
C1586      H1595   1.084       .  S
C1587      C1588   1.418       .  A
C1587      S1591   1.802       .  S
C1588      C1589   1.401       .  A
C1589      C1590   1.397       .  A
C1589      H1596   1.082       .  S
C1590      S1592   1.806       .  S
S1591      H1594   1.406       .  S
S1592      H1593   1.407       .  S
C1597      C1598   1.409       .  A
C1597      C1602   1.413       .  A
C1598      C1599   1.400       .  A
C1598      H1607   1.083       .  S
C1599      C1600   1.406       .  A
C1599      S1603   1.798       .  S
C1600      C1601   1.407       .  A
C1601      C1602   1.410       .  A
C1601      H1608   1.083       .  S
C1602      S1604   1.807       .  S
S1603      H1606   1.405       .  S
S1604      H1605   1.406       .  S
C1609      C1610   1.414       .  A
C1609      C1614   1.410       .  A
C1610      C1611   1.396       .  A
C1610      H1619   1.082       .  S
C1611      C1612   1.409       .  A
C1611      S1615   1.810       .  S
C1612      C1613   1.410       .  A
C1613      C1614   1.398       .  A
C1613      H1620   1.084       .  S
C1614      S1616   1.799       .  S
S1615      H1618   1.407       .  S
S1616      H1617   1.408       .  S
C1621      C1622   1.392       .  A
C1621      C1626   1.421       .  A
C1622      C1623   1.401       .  A
C1622      H1631   1.082       .  S
C1623      C1624   1.435       .  A
C1623      S1627   1.811       .  S
C1624      C1625   1.401       .  A
C1625      C1626   1.409       .  A
C1625      H1632   1.082       .  S
C1626      S1628   1.809       .  S
S1627      H1630   1.406       .  S
S1628      H1629   1.406       .  S
C1633      C1634   1.404       .  A
C1633      C1638   1.416       .  A
C1634      C1635   1.406       .  A
C1634      H1643   1.084       .  S
C1635      C1636   1.414       .  A
C1635      S1639   1.803       .  S
C1636      C1637   1.401       .  A
C1637      C1638   1.399       .  A
C1637      H1644   1.085       .  S
C1638      S1640   1.804       .  S
S1639      H1642   1.406       .  S
S1640      H1641   1.407       .  S
C1645      C1646   1.411       .  A
C1645      C1650   1.417       .  A
C1646      C1647   1.405       .  A
C1646      H1655   1.077       .  S
C1647      C1648   1.411       .  A
C1647      S1651   1.804       .  S
C1648      C1649   1.411       .  A
C1649      C1650   1.413       .  A
C1649      H1656   1.082       .  S
C1650      S1652   1.806       .  S
S1651      H1654   1.407       .  S
S1652      H1653   1.407       .  S
C1657      C1658   1.419       .  A
C1657      C1662   1.409       .  A
C1658      C1659   1.402       .  A
C1658      H1667   1.081       .  S
C1659      C1660   1.411       .  A
C1659      S1663   1.811       .  S
C1660      C1661   1.421       .  A
C1661      C1662   1.406       .  A
C1661      H1668   1.083   1_545  S
C1662      S1664   1.799       .  S
S1663      H1666   1.407       .  S
S1664      H1665   1.407       .  S
C1669      C1670   1.399       .  A
C1669      C1674   1.421       .  A
C1670      C1671   1.396       .  A
C1670      H1679   1.081       .  S
C1671      C1672   1.411       .  A
C1671      S1675   1.802       .  S
C1672      C1673   1.404       .  A
C1673      C1674   1.410       .  A
C1673      H1680   1.083       .  S
C1674      S1676   1.806       .  S
S1675      H1678   1.407       .  S
S1676      H1677   1.405       .  S
C1681      C1682   1.420       .  A
C1681      C1686   1.413       .  A
C1682      C1683   1.410       .  A
C1682      H1691   1.083       .  S
C1683      C1684   1.409       .  A
C1683      S1687   1.796       .  S
C1684      C1685   1.415       .  A
C1685      C1686   1.408       .  A
C1685      H1692   1.084       .  S
C1686      S1688   1.800       .  S
S1687      H1690   1.407       .  S
S1688      H1689   1.406       .  S
