geometry optimzed in LAMMPS
_audit_creation_date              2020-11-30 
_audit_creation_method            'lammps2cif' 
_symmetry_space_group_name_H-M    'P1' 
_symmetry_Int_Tables_number       1 
_symmetry_cell_setting            triclinic 
loop_ 
_symmetry_equiv_pos_as_xyz 
  x,y,z 
_cell_length_a                    31.63492747587143 
_cell_length_b                    31.65670966198328 
_cell_length_c                    35.61291778484083 
_cell_angle_alpha                 87.72089220872073 
_cell_angle_beta                  89.54460464354813 
_cell_angle_gamma                 119.76086381025245 
loop_ 
_atom_site_label 
_atom_site_type_symbol 
_atom_site_fract_x 
_atom_site_fract_y 
_atom_site_fract_z 
_atom_site_charge 
C1          C  0.35571896  0.20532706  0.99731405    -0.03380
C2          C  0.35469716  0.20035540  0.16316696    -0.03380
C3          C  0.17372265  0.33803055  0.41939194    -0.03380
C4          C  0.16091932  0.33292845  0.25414018    -0.03380
O5          O  0.38876058  0.47384724  0.48716524    -0.81030
O6          O  0.06464372  0.97325446  0.41501896    -0.81060
O7          O  0.48385683  0.05200508  0.37555679    -0.81060
O8          O  0.50151966  0.44068222  0.51030490    -0.81010
O9          O  0.01608893  0.00632014  0.37064530    -0.81130
O10         O  0.44655931  0.43586445  0.47046612    -0.81050
O11         O  0.08981460  0.48351294  0.47330735    -0.81030
O12         O  0.41196802  0.97731529  0.42853071    -0.81070
C13         C  0.37732433  0.46086781  0.45430989     1.08660
C14         C  0.08500442  0.46400436  0.44214790     1.08540
C15         C  0.99642803  0.02817087  0.35478513     1.08680
C16         C  0.46455048  0.41554837  0.49017578     1.08560
O17         O  0.45507211  0.48845713  0.03573875    -0.81030
O18         O  0.08092957  0.10726751  0.39825857    -0.81110
O19         O  0.43414871  0.06949325  0.42721216    -0.81050
O20         O  0.11307644  0.07903596  0.49231515    -0.81030
O21         O  0.13214488  0.07079860  0.43434851    -0.81080
O22         O  0.45672320  0.06644272  0.48516048    -0.81040
O23         O  0.03063524  0.54128731  0.03765407    -0.81000
O24         O  0.02968397  0.10879914  0.43952663    -0.81070
Co25       Co  0.45577372  0.50058941  0.47830328     1.51530
Co26       Co  0.06892466  0.03788980  0.40764285     1.51690
Co27       Co  0.47574098  0.04357874  0.43331186     1.51570
Co28       Co  0.05579155  0.51225818  0.50055406     1.51470
O29         O  0.02282086  0.02296819  0.45433970    -1.42970
C30         C  0.49082289  0.51493950  0.05550427     1.08580
C31         C  0.06789548  0.13052464  0.41973282     1.08670
C32         C  0.43667311  0.08201003  0.46057760     1.08610
C33         C  0.14441189  0.09074282  0.46556297     1.08590
O34         O  0.40853016  0.96261146  0.23958645    -0.81030
O35         O  0.07185293  0.46805592  0.18644407    -0.81060
O36         O  0.44396997  0.43122505  0.19210751    -0.81060
O37         O  0.02718619  0.02686438  0.29251515    -0.81010
O38         O  0.49185503  0.43708329  0.14608228    -0.81130
O39         O  0.46004026  0.03202620  0.29438229    -0.81050
O40         O  0.04284805  0.96266561  0.24391239    -0.81030
O41         O  0.38175433  0.46520917  0.18193143    -0.81070
C42         C  0.37265360  0.45198663  0.21668178     1.08660
C43         C  0.06266724  0.44885898  0.21959613     1.08540
C44         C  0.45937377  0.41094108  0.17095438     1.08680
C45         C  0.99334996  0.02867345  0.31196381     1.08560
O46         O  0.02139717  0.09934655  0.24086132    -0.81030
O47         O  0.02990433  0.53770974  0.11421925    -0.81110
O48         O  0.45382495  0.05823684  0.16474346    -0.81050
O49         O  0.12403205  0.04775632  0.21349945    -0.81030
O50         O  0.10974422  0.06768583  0.15796974    -0.81080
O51         O  0.43776151  0.05974489  0.22383549    -0.81040
O52         O  0.09246721  0.10581086  0.23679973    -0.81000
O53         O  0.45222867  0.48704503  0.12017331    -0.81070
Co54       Co  0.47515893  0.02847476  0.24128026     1.51530
Co55       Co  0.04827050  0.50473042  0.15414051     1.51690
Co56       Co  0.45056088  0.49515273  0.17824839     1.51570
Co57       Co  0.06356619  0.03339141  0.24120838     1.51470
O58         O  0.01667983  0.02581960  0.19587357    -1.42970
C59         C  0.06653387  0.12562079  0.23551145     1.08580
C60         C  0.48975598  0.51365878  0.09854899     1.08670
C61         C  0.43834003  0.07413307  0.19029326     1.08610
C62         C  0.13970862  0.07213740  0.18291844     1.08590
C63         C  0.05951818  0.19926932  0.24400942    -0.10050
C64         C  0.08681878  0.17945114  0.22953997     0.06140
C65         C  0.13189294  0.21215532  0.21137858    -0.03820
C66         C  0.15179568  0.26262109  0.21393287    -0.08270
C67         C  0.13030643  0.28153058  0.23796053     0.05260
C68         C  0.08040847  0.24925238  0.24886567    -0.03290
Br69       Br  0.04094098  0.26487946  0.27988543    -0.02990
H70         H  0.02449928  0.17530867  0.25764947     0.09170
H71         H  0.18658415  0.28631902  0.19985776     0.07190
Br72       Br  0.16913421  0.19171299  0.18338287    -0.03420
C73         C  0.11015966  0.37484315  0.27331312    -0.10050
C74         C  0.13291478  0.36190075  0.24463829     0.06140
C75         C  0.12744814  0.37519692  0.20726197    -0.03820
C76         C  0.10409712  0.40254410  0.20023504    -0.08270
C77         C  0.08223425  0.41531432  0.22919257     0.05260
C78         C  0.08491580  0.39999697  0.26614486    -0.03290
Br79       Br  0.05569285  0.41208114  0.30894287    -0.02990
H80         H  0.10892992  0.36323504  0.30222756     0.09170
H81         H  0.10418916  0.91483816  0.17147107     0.07190
Br82       Br  0.15311457  0.35975926  0.16410449    -0.03420
C83         C  0.30053931  0.37411786  0.24065490    -0.10050
C84         C  0.32059050  0.42285045  0.22909466     0.06140
C85         C  0.28918777  0.44214789  0.22569323    -0.03820
C86         C  0.23858660  0.41196428  0.22930839    -0.08270
C87         C  0.21659264  0.36179849  0.24038109     0.05260
C88         C  0.25020781  0.34436510  0.24769733    -0.03290
Br89       Br  0.23414505  0.28273717  0.27100571    -0.02990
H90         H  0.32445792  0.35937215  0.24556811     0.09170
H91         H  0.21734242  0.43002633  0.22737576     0.07190
Br92       Br  0.31344519  0.01071699  0.22470142    -0.03420
C93         C  0.09554258  0.25843897  0.43699912    -0.10050
C94         C  0.14680737  0.28494223  0.43897668     0.06140
C95         C  0.16948232  0.25515246  0.44318729    -0.03820
C96         C  0.14333983  0.20532996  0.43624586    -0.08270
C97         C  0.09592606  0.18372101  0.42368839     0.05260
C98         C  0.07163747  0.21071731  0.42478672    -0.03290
Br99       Br  0.00974947  0.18759030  0.40194560    -0.02990
H100        H  0.07445089  0.27626459  0.43990000     0.09170
H101        H  0.15999593  0.18318944  0.44106925     0.07190
Br102      Br  0.23324964  0.27475412  0.46174752    -0.03420
C103        C  0.16905589  0.41065835  0.44968159    -0.10050
C104        C  0.14679342  0.36841309  0.42817970     0.06140
C105        C  0.10282102  0.36088100  0.40997672    -0.03820
C106        C  0.08364105  0.39188555  0.41524780    -0.08270
C107        C  0.10606520  0.43170980  0.43768419     0.05260
C108        C  0.14941055  0.44097174  0.45489875    -0.03290
Br109      Br  0.18801454  0.99822750  0.48253524    -0.02990
H110        H  0.20454898  0.42505512  0.46055668     0.09170
H111        H  0.05091285  0.38522570  0.40097997     0.07190
Br112      Br  0.06649802  0.31367859  0.37351179    -0.03420
C113        C  0.24091641  0.37696966  0.46658502    -0.10050
C114        C  0.22847275  0.36316661  0.42958474     0.06140
C115        C  0.26812239  0.37121864  0.40454773    -0.03820
C116        C  0.31571409  0.40398660  0.41313017    -0.08270
C117        C  0.32638940  0.42570677  0.44739552     0.05260
C118        C  0.28845581  0.41084434  0.47507753    -0.03290
Br119      Br  0.29606886  0.93754294  0.52387672    -0.02990
H120        H  0.21243591  0.36509977  0.48819581     0.09170
H121        H  0.34494054  0.41108332  0.39328506     0.07190
Br122      Br  0.26565587  0.33259402  0.36323987    -0.03420
C123        C  0.19058666  0.37501033  0.31421650    -0.10050
C124        C  0.16548735  0.32954638  0.29723355     0.06140
C125        C  0.14923742  0.28679565  0.32136509    -0.03820
C126        C  0.15343578  0.29139345  0.35951631    -0.08270
C127        C  0.17295858  0.33613031  0.37650131     0.05260
C128        C  0.19336490  0.37895484  0.35265212    -0.03290
Br129      Br  0.22756554  0.44472344  0.36905948    -0.02990
H130        H  0.20557330  0.40870603  0.29728596     0.09170
H131        H  0.14330630  0.25862945  0.37563400     0.07190
Br132      Br  0.12690919  0.21958415  0.31099437    -0.03420
C133        C  0.22351761  0.11247004  0.20821300    -0.10050
C134        C  0.19310645  0.10466345  0.17755489     0.06140
C135        C  0.21469931  0.12821505  0.14304173    -0.03820
C136        C  0.26495555  0.15680286  0.13955479    -0.08270
C137        C  0.29717126  0.16923316  0.17023221     0.05240
C138        C  0.27420981  0.14366214  0.20512462    -0.03290
Br139      Br  0.30737899  0.14613477  0.25050689    -0.02990
H140        H  0.20774293  0.09420633  0.23527244     0.09170
H141        H  0.27685915  0.16668168  0.11102924     0.07190
Br142      Br  0.17855945  0.12467865  0.09886008    -0.03420
C143        C  0.39260226  0.32997363  0.19582974    -0.10050
C144        C  0.43706221  0.35685626  0.17527490     0.06140
C145        C  0.45840474  0.33109744  0.16055406    -0.03820
C146        C  0.43415844  0.28034087  0.16495831    -0.08270
C147        C  0.38477312  0.25258021  0.17849072     0.05260
C148        C  0.36610112  0.27881103  0.19723780    -0.03290
Br149      Br  0.30382831  0.25051901  0.22195983    -0.02990
H150        H  0.37640538  0.34899380  0.20880750     0.09170
H151        H  0.45166499  0.26199723  0.15265427     0.07190
Br152      Br  0.01774304  0.36129762  0.13073288    -0.03420
C153        C  0.43147893  0.14564578  0.20578859    -0.10050
C154        C  0.41841673  0.10667249  0.18255750     0.06140
C155        C  0.37934373  0.09369061  0.15864250    -0.03820
C156        C  0.35555760  0.12088960  0.15754695    -0.08270
C157        C  0.37379272  0.16529399  0.17618675     0.05260
C158        C  0.41018465  0.17509280  0.20310748    -0.03290
Br159      Br  0.42890699  0.22201120  0.24134455    -0.02990
H160        H  0.45771768  0.15243119  0.22712302     0.09170
H161        H  0.32565257  0.11011665  0.13863906     0.07190
Br162      Br  0.35465636  0.03707782  0.12909243    -0.03420
C163        C  0.21360268  0.11640944  0.00711125    -0.10050
C164        C  0.19725839  0.12342653  0.47260413     0.06140
C165        C  0.23268072  0.15539686  0.44523175    -0.03820
C166        C  0.28214205  0.18295169  0.45462534    -0.08270
C167        C  0.29910201  0.17640569  0.48992683     0.05260
C168        C  0.26302539  0.13869988  0.01485558    -0.03290
Br169      Br  0.27390169  0.10455050  0.05579053    -0.02990
H170        H  0.18757250  0.08836740  0.02682452     0.09170
H171        H  0.30807109  0.20772929  0.43324523     0.07190
Br172      Br  0.21695004  0.16132666  0.39402737    -0.03420
C173        C  0.35817778  0.28807944  0.99106409    -0.10050
C174        C  0.37885425  0.25980094  0.48051158     0.06140
C175        C  0.42452449  0.28708140  0.46082129    -0.03820
C176        C  0.45453049  0.33722084  0.46718372    -0.08270
C177        C  0.43773173  0.36152810  0.48996229     0.05260
C178        C  0.38774042  0.33654096  0.00006994    -0.03290
Br179      Br  0.35799870  0.36607114  0.02778811    -0.02990
H180        H  0.31936853  0.27132428  0.99628280     0.09170
H181        H  0.48940589  0.35778309  0.45240778     0.07190
Br182      Br  0.44127083  0.26281078  0.41790002    -0.03420
C183        C  0.35403897  0.13479441  0.46317156    -0.10050
C184        C  0.38194221  0.17909499  0.48104925     0.06140
C185        C  0.43231835  0.19366551  0.98749182    -0.03820
C186        C  0.44928202  0.16106029  0.98132094    -0.08270
C187        C  0.41825093  0.11485561  0.46851862     0.05260
C188        C  0.37125865  0.10285948  0.45761871    -0.03290
Br189      Br  0.32696891  0.04135056  0.43720904    -0.02990
H190        H  0.31705065  0.12218787  0.45517842     0.09170
H191        H  0.48639568  0.17110894  0.98793542     0.07190
Br192      Br  0.47873351  0.25141387  0.01206241    -0.03420
C193        C  0.34305029  0.23273615  0.06086679    -0.10050
C194        C  0.36205205  0.20787593  0.04085222     0.06140
C195        C  0.38506955  0.18678182  0.06324652    -0.03820
C196        C  0.39452275  0.19837401  0.10022748    -0.08270
C197        C  0.36615937  0.21317335  0.12013400     0.05260
C198        C  0.34903645  0.24002416  0.09889032    -0.03290
Br199      Br  0.31866496  0.27434971  0.11915886    -0.02990
H200        H  0.31735450  0.24143332  0.04875479     0.09170
H201        H  0.41784119  0.18744976  0.11447146     0.07190
Br202      Br  0.38718770  0.12754796  0.05586052    -0.03420
C203        C  0.35569513  0.20531954  0.49731463    -0.03380
C204        C  0.35469511  0.20035432  0.66316642    -0.03380
C205        C  0.17374690  0.33804012  0.91938975    -0.03380
C206        C  0.16091654  0.33292789  0.75413975    -0.03380
O207        O  0.38878576  0.47385390  0.98716398    -0.81030
O208        O  0.06466856  0.97326447  0.91501780    -0.81060
O209        O  0.48388010  0.05201506  0.87555736    -0.81060
O210        O  0.50154676  0.44069278  0.01030439    -0.81010
O211        O  0.01611124  0.00632938  0.87064419    -0.81130
O212        O  0.44658682  0.43587321  0.97046422    -0.81050
O213        O  0.08984116  0.48352446  0.97330585    -0.81030
O214        O  0.41199417  0.97732472  0.92852958    -0.81070
C215        C  0.37735009  0.46087575  0.95430837     1.08660
C216        C  0.08503014  0.46401510  0.94214663     1.08540
C217        C  0.99644756  0.02817841  0.85478531     1.08680
C218        C  0.46457858  0.41555816  0.99017466     1.08560
O219        O  0.45504827  0.48844982  0.53574083    -0.81030
O220        O  0.08095305  0.10727719  0.89825755    -0.81110
O221        O  0.43417409  0.06950288  0.92721266    -0.81050
O222        O  0.11310271  0.07904668  0.99231366    -0.81030
O223        O  0.13216920  0.07080891  0.93434613    -0.81080
O224        O  0.45674802  0.06645047  0.98516075    -0.81040
O225        O  0.03061117  0.54127956  0.53765267    -0.81000
O226        O  0.02970938  0.10880876  0.93952748    -0.81070
Co227      Co  0.45579912  0.50059751  0.97830192     1.51530
Co228      Co  0.06894849  0.03789951  0.90764138     1.51690
Co229      Co  0.47576633  0.04358849  0.93331208     1.51570
Co230      Co  0.05581762  0.51226863  0.00055345     1.51470
O231        O  0.02284641  0.02297812  0.95433911    -1.42970
C232        C  0.49080106  0.51493179  0.55550497     1.08580
C233        C  0.06792043  0.13053426  0.91973316     1.08670
C234        C  0.43669877  0.08201909  0.96057823     1.08610
C235        C  0.14443727  0.09075286  0.96556064     1.08590
O236        O  0.40852909  0.96261136  0.73959085    -0.81030
O237        O  0.07184606  0.46804983  0.68643896    -0.81060
O238        O  0.44396540  0.43122087  0.69211171    -0.81060
O239        O  0.02719555  0.02686610  0.79251333    -0.81010
O240        O  0.49184427  0.43707784  0.64608236    -0.81130
O241        O  0.46004941  0.03202734  0.79438554    -0.81050
O242        O  0.04284506  0.96266300  0.74390800    -0.81030
O243        O  0.38174923  0.46520494  0.68193662    -0.81070
C244        C  0.37265099  0.45198511  0.71668736     1.08660
C245        C  0.06266223  0.44885458  0.71959158     1.08540
C246        C  0.45936807  0.41093653  0.67095785     1.08680
C247        C  0.99336214  0.02867661  0.81196444     1.08560
O248        O  0.02139928  0.09934556  0.74086147    -0.81030
O249        O  0.02989146  0.53770182  0.61421672    -0.81110
O250        O  0.45381681  0.05823110  0.66474608    -0.81050
O251        O  0.12402836  0.04775057  0.71349130    -0.81030
O252        O  0.10973882  0.06767878  0.65796173    -0.81080
O253        O  0.43776175  0.05974505  0.72383910    -0.81040
O254        O  0.09246863  0.10580908  0.73679467    -0.81000
O255        O  0.45221584  0.48703784  0.62017660    -0.81070
Co256      Co  0.47515986  0.02847400  0.74128137     1.51530
Co257      Co  0.04826188  0.50472427  0.65413679     1.51690
Co258      Co  0.45055476  0.49514815  0.67825153     1.51570
Co259      Co  0.06356596  0.03338922  0.74120325     1.51470
O260        O  0.01667608  0.02581715  0.69587154    -1.42970
C261        C  0.06653576  0.12561974  0.73551019     1.08580
C262        C  0.48974037  0.51365103  0.59854968     1.08670
C263        C  0.43833497  0.07412945  0.69029643     1.08610
C264        C  0.13970407  0.07213178  0.68291031     1.08590
C265        C  0.05951738  0.19926764  0.74400746    -0.10050
C266        C  0.08682041  0.17945050  0.72954030     0.06140
C267        C  0.13189660  0.21215630  0.71138259    -0.03820
C268        C  0.15179502  0.26262160  0.71393352    -0.08270
C269        C  0.13030430  0.28152991  0.73796035     0.05260
C270        C  0.08040635  0.24925064  0.74886460    -0.03290
Br271      Br  0.04093793  0.26487670  0.77988424    -0.02990
H272        H  0.02449735  0.17530609  0.75764588     0.09170
H273        H  0.18658377  0.28632025  0.69985904     0.07190
Br274      Br  0.16915390  0.19171883  0.68340414    -0.03420
C275        C  0.11015572  0.37484143  0.77331062    -0.10050
C276        C  0.13291186  0.36189943  0.74463653     0.06140
C277        C  0.12744561  0.37519464  0.70725982    -0.03820
C278        C  0.10409291  0.40254001  0.70023177    -0.08270
C279        C  0.08222956  0.41531048  0.72918874     0.05260
C280        C  0.08491112  0.39999419  0.76614143    -0.03290
Br281      Br  0.05568684  0.41207784  0.80893890    -0.02990
H282        H  0.10892636  0.36323420  0.80222520     0.09170
H283        H  0.10418419  0.91483264  0.67146746     0.07190
Br284      Br  0.15311444  0.35975783  0.66410333    -0.03420
C285        C  0.30053651  0.37411616  0.74065826    -0.10050
C286        C  0.32058857  0.42284975  0.72910132     0.06140
C287        C  0.28918626  0.44214757  0.72569925    -0.03820
C288        C  0.23858484  0.41196370  0.72931028    -0.08270
C289        C  0.21659011  0.36179739  0.74038133     0.05260
C290        C  0.25020471  0.34436318  0.74769829    -0.03290
Br291      Br  0.23414104  0.28273298  0.77100331    -0.02990
H292        H  0.32445456  0.35936961  0.74557040     0.09170
H293        H  0.21734061  0.43002567  0.72737670     0.07190
Br294      Br  0.31344399  0.01071658  0.72471234    -0.03420
C295        C  0.09556845  0.25844874  0.93699880    -0.10050
C296        C  0.14683340  0.28495231  0.93897531     0.06140
C297        C  0.16950868  0.25516273  0.94318608    -0.03820
C298        C  0.14336468  0.20533930  0.93624769    -0.08270
C299        C  0.09595142  0.18373056  0.92368910     0.05260
C300        C  0.07166336  0.21072724  0.92478623    -0.03290
Br301      Br  0.00977581  0.18760014  0.90194431    -0.02990
H302        H  0.07447667  0.27627417  0.93989993     0.09170
H303        H  0.16001973  0.18319832  0.94107292     0.07190
Br304      Br  0.23328136  0.27476703  0.96173614    -0.03420
C305        C  0.16907883  0.41066545  0.94968223    -0.10050
C306        C  0.14681679  0.36842143  0.92817911     0.06140
C307        C  0.10284439  0.36089003  0.90997624    -0.03820
C308        C  0.08366588  0.39189590  0.91524664    -0.08270
C309        C  0.10609029  0.43171978  0.93768328     0.05260
C310        C  0.14943429  0.44097953  0.95489921    -0.03290
Br311      Br  0.18803770  0.99823266  0.98253812    -0.02990
H312        H  0.20457063  0.42506011  0.96055934     0.09170
H313        H  0.05093829  0.38523707  0.90097833     0.07190
Br314      Br  0.06651841  0.31368605  0.87351299    -0.03420
C315        C  0.24094205  0.37697754  0.96658123    -0.10050
C316        C  0.22849794  0.36317843  0.92958015     0.06140
C317        C  0.26814775  0.37123578  0.90454091    -0.03820
C318        C  0.31573957  0.40400170  0.91312499    -0.08270
C319        C  0.32641517  0.42571569  0.94739284     0.05260
C320        C  0.28848149  0.41085012  0.97507512    -0.03290
Br321      Br  0.29609424  0.93754189  0.02387702    -0.02990
H322        H  0.21246174  0.36510474  0.98819255     0.09170
H323        H  0.34496603  0.41110221  0.89327860     0.07190
Br324      Br  0.26568288  0.33262228  0.86322535    -0.03420
C325        C  0.19058567  0.37501348  0.81421429    -0.10050
C326        C  0.16548585  0.32954802  0.79723314     0.06140
C327        C  0.14924359  0.28679902  0.82136540    -0.03820
C328        C  0.15345654  0.29140005  0.85951571    -0.08270
C329        C  0.17297852  0.33613763  0.87649951     0.05260
C330        C  0.19337565  0.37896065  0.85264926    -0.03290
Br331      Br  0.22757933  0.44473045  0.86905421    -0.02990
H332        H  0.20556609  0.40870822  0.79728318     0.09170
H333        H  0.14333750  0.25863839  0.87563342     0.07190
Br334      Br  0.12690398  0.21958513  0.81099613    -0.03420
C335        C  0.22351404  0.11244955  0.70820288    -0.10050
C336        C  0.19310202  0.10466032  0.67754794     0.06140
C337        C  0.21469339  0.12823919  0.64304180    -0.03820
C338        C  0.26494919  0.15683465  0.63955733    -0.08270
C339        C  0.29716782  0.16923803  0.67023162     0.05240
C340        C  0.27420560  0.14364639  0.70511828    -0.03290
Br341      Br  0.30737106  0.14609629  0.75049839    -0.02990
H342        H  0.20774027  0.09416844  0.73525777     0.09170
H343        H  0.27684742  0.16674226  0.61103296     0.07190
Br344      Br  0.17855116  0.12473999  0.59886894    -0.03420
C345        C  0.39260779  0.32996783  0.69584374    -0.10050
C346        C  0.43706137  0.35685237  0.67528079     0.06140
C347        C  0.45840239  0.33109562  0.66055295    -0.03820
C348        C  0.43415775  0.28033901  0.66495503    -0.08270
C349        C  0.38477464  0.25257749  0.67849187     0.05260
C350        C  0.36610758  0.27880507  0.69724965    -0.03290
Br351      Br  0.30384492  0.25050580  0.72198890    -0.02990
H352        H  0.37641486  0.34898627  0.70883011     0.09170
H353        H  0.45166180  0.26199634  0.65264500     0.07190
Br354      Br  0.01773605  0.36129866  0.63072579    -0.03420
C355        C  0.43147436  0.14564302  0.70578970    -0.10050
C356        C  0.41840990  0.10666762  0.68256070     0.06140
C357        C  0.37933444  0.09368383  0.65864759    -0.03820
C358        C  0.35554873  0.12088352  0.65755161    -0.08270
C359        C  0.37378836  0.16529119  0.67618719     0.05260
C360        C  0.41018113  0.17509075  0.70310755    -0.03290
Br361      Br  0.42890048  0.22200662  0.74134655    -0.02990
H362        H  0.45771416  0.15242947  0.72712403     0.09170
H363        H  0.32564137  0.11010929  0.63864571     0.07190
Br364      Br  0.35464454  0.03706880  0.62910011    -0.03420
C365        C  0.21357451  0.11641429  0.50711941    -0.10050
C366        C  0.19728423  0.12343407  0.97260101     0.06140
C367        C  0.23270519  0.15541208  0.94523070    -0.03820
C368        C  0.28216638  0.18296756  0.95462476    -0.08270
C369        C  0.29912721  0.17641258  0.98992297     0.05260
C370        C  0.26299686  0.13870562  0.51486601    -0.03290
Br371      Br  0.27386328  0.10457076  0.55581734    -0.02990
H372        H  0.18754216  0.08838160  0.52683740     0.09170
H373        H  0.30809435  0.20775236  0.93324719     0.07190
Br374      Br  0.21697390  0.16134850  0.89402766    -0.03420
C375        C  0.35814914  0.28806891  0.49105503    -0.10050
C376        C  0.37887927  0.25981025  0.98051484     0.06140
C377        C  0.42454601  0.28708999  0.96081947    -0.03820
C378        C  0.45455373  0.33722985  0.96718009    -0.08270
C379        C  0.43776031  0.36153796  0.98996305     0.05260
C380        C  0.38770947  0.33653055  0.50006235    -0.03290
Br381      Br  0.35796235  0.36605800  0.52777731    -0.02990
H382        H  0.31933958  0.27131017  0.49627536     0.09170
H383        H  0.48942625  0.35779162  0.95240006     0.07190
Br384      Br  0.44128680  0.26281637  0.91789718    -0.03420
C385        C  0.35406464  0.13480238  0.96317241    -0.10050
C386        C  0.38196746  0.17910338  0.98104973     0.06140
C387        C  0.43229235  0.19365495  0.48749360    -0.03820
C388        C  0.44925518  0.16104925  0.48132299    -0.08270
C389        C  0.41827696  0.11486476  0.96851974     0.05260
C390        C  0.37128406  0.10286719  0.95762106    -0.03290
Br391      Br  0.32699380  0.04135694  0.93721339    -0.02990
H392        H  0.31707674  0.12219584  0.95517797     0.09170
H393        H  0.48636807  0.17109653  0.48793899     0.07190
Br394      Br  0.47870801  0.25140193  0.51206556    -0.03420
C395        C  0.34305818  0.23275140  0.56086823    -0.10050
C396        C  0.36203627  0.20787176  0.54085180     0.06140
C397        C  0.38504222  0.18676287  0.56324338    -0.03820
C398        C  0.39450565  0.19835553  0.60022346    -0.08270
C399        C  0.36615788  0.21317099  0.62013292     0.05260
C400        C  0.34905405  0.24004051  0.59889119    -0.03290
Br401      Br  0.31870951  0.27439020  0.61916288    -0.02990
H402        H  0.31737141  0.24146398  0.54876024     0.09170
H403        H  0.41781863  0.18742140  0.61446378     0.07190
Br404      Br  0.38713219  0.12751515  0.55585245    -0.03420
C405        C  0.35571896  0.70532706  0.99731405    -0.03380
C406        C  0.35469715  0.70035539  0.16316695    -0.03380
C407        C  0.17372266  0.83803055  0.41939194    -0.03380
C408        C  0.16091932  0.83292845  0.25414019    -0.03380
O409        O  0.38876058  0.97384725  0.48716524    -0.81030
O410        O  0.06464371  0.47325446  0.41501896    -0.81060
O411        O  0.48385682  0.55200508  0.37555680    -0.81060
O412        O  0.50151966  0.94068221  0.51030490    -0.81010
O413        O  0.01608892  0.50632014  0.37064530    -0.81130
O414        O  0.44655931  0.93586445  0.47046612    -0.81050
O415        O  0.08981461  0.98351294  0.47330735    -0.81030
O416        O  0.41196802  0.47731529  0.42853071    -0.81070
C417        C  0.37732433  0.96086781  0.45430989     1.08660
C418        C  0.08500442  0.96400437  0.44214789     1.08540
C419        C  0.99642803  0.52817087  0.35478514     1.08680
C420        C  0.46455047  0.91554836  0.49017578     1.08560
O421        O  0.45507211  0.98845713  0.03573875    -0.81030
O422        O  0.08092957  0.60726751  0.39825858    -0.81110
O423        O  0.43414870  0.56949324  0.42721216    -0.81050
O424        O  0.11307643  0.57903595  0.49231515    -0.81030
O425        O  0.13214488  0.57079860  0.43434851    -0.81080
O426        O  0.45672319  0.56644271  0.48516048    -0.81040
O427        O  0.03063524  0.04128731  0.03765407    -0.81000
O428        O  0.02968397  0.60879914  0.43952664    -0.81070
Co429      Co  0.45577373  0.00058941  0.47830328     1.51530
Co430      Co  0.06892466  0.53788980  0.40764286     1.51690
Co431      Co  0.47574097  0.54357874  0.43331187     1.51570
Co432      Co  0.05579156  0.01225819  0.50055406     1.51470
O433        O  0.02282086  0.52296819  0.45433970    -1.42970
C434        C  0.49082288  0.01493951  0.05550427     1.08580
C435        C  0.06789548  0.63052463  0.41973282     1.08670
C436        C  0.43667310  0.58201002  0.46057760     1.08610
C437        C  0.14441189  0.59074282  0.46556297     1.08590
O438        O  0.40853016  0.46261146  0.23958645    -0.81030
O439        O  0.07185293  0.96805591  0.18644406    -0.81060
O440        O  0.44396997  0.93122505  0.19210751    -0.81060
O441        O  0.02718618  0.52686438  0.29251515    -0.81010
O442        O  0.49185502  0.93708329  0.14608227    -0.81130
O443        O  0.46004025  0.53202620  0.29438229    -0.81050
O444        O  0.04284805  0.46266561  0.24391239    -0.81030
O445        O  0.38175433  0.96520917  0.18193143    -0.81070
C446        C  0.37265360  0.95198663  0.21668178     1.08660
C447        C  0.06266724  0.94885898  0.21959613     1.08540
C448        C  0.45937376  0.91094108  0.17095438     1.08680
C449        C  0.99334996  0.52867345  0.31196382     1.08560
O450        O  0.02139716  0.59934655  0.24086132    -0.81030
O451        O  0.02990432  0.03770974  0.11421925    -0.81110
O452        O  0.45382495  0.55823683  0.16474346    -0.81050
O453        O  0.12403205  0.54775633  0.21349946    -0.81030
O454        O  0.10974422  0.56768584  0.15796975    -0.81080
O455        O  0.43776151  0.55974489  0.22383549    -0.81040
O456        O  0.09246721  0.60581086  0.23679973    -0.81000
O457        O  0.45222867  0.98704503  0.12017331    -0.81070
Co458      Co  0.47515892  0.52847476  0.24128026     1.51530
Co459      Co  0.04827049  0.00473042  0.15414051     1.51690
Co460      Co  0.45056088  0.99515273  0.17824839     1.51570
Co461      Co  0.06356619  0.53339141  0.24120838     1.51470
O462        O  0.01667983  0.52581960  0.19587357    -1.42970
C463        C  0.06653386  0.62562079  0.23551145     1.08580
C464        C  0.48975598  0.01365879  0.09854899     1.08670
C465        C  0.43834004  0.57413307  0.19029325     1.08610
C466        C  0.13970863  0.57213741  0.18291845     1.08590
C467        C  0.05951817  0.69926932  0.24400943    -0.10050
C468        C  0.08681877  0.67945114  0.22953997     0.06140
C469        C  0.13189291  0.71215531  0.21137857    -0.03820
C470        C  0.15179566  0.76262109  0.21393286    -0.08270
C471        C  0.13030643  0.78153058  0.23796053     0.05260
C472        C  0.08040846  0.74925237  0.24886569    -0.03290
Br473      Br  0.04094099  0.76487946  0.27988546    -0.02990
H474        H  0.02449928  0.67530867  0.25764949     0.09170
H475        H  0.18658413  0.78631901  0.19985775     0.07190
Br476      Br  0.16913414  0.69171297  0.18338280    -0.03420
C477        C  0.11015966  0.87484315  0.27331313    -0.10050
C478        C  0.13291478  0.86190075  0.24463829     0.06140
C479        C  0.12744813  0.87519691  0.20726198    -0.03820
C480        C  0.10409712  0.90254409  0.20023504    -0.08270
C481        C  0.08223425  0.91531432  0.22919257     0.05260
C482        C  0.08491580  0.89999697  0.26614486    -0.03290
Br483      Br  0.05569287  0.91208115  0.30894287    -0.02990
H484        H  0.10892992  0.86323505  0.30222756     0.09170
H485        H  0.10418917  0.41483817  0.17147107     0.07190
Br486      Br  0.15311456  0.85975925  0.16410449    -0.03420
C487        C  0.30053931  0.87411785  0.24065490    -0.10050
C488        C  0.32059050  0.92285045  0.22909467     0.06140
C489        C  0.28918777  0.94214789  0.22569324    -0.03820
C490        C  0.23858660  0.91196428  0.22930839    -0.08270
C491        C  0.21659263  0.86179849  0.24038109     0.05260
C492        C  0.25020780  0.84436510  0.24769733    -0.03290
Br493      Br  0.23414505  0.78273717  0.27100570    -0.02990
H494        H  0.32445792  0.85937215  0.24556811     0.09170
H495        H  0.21734242  0.93002632  0.22737576     0.07190
Br496      Br  0.31344520  0.51071700  0.22470140    -0.03420
C497        C  0.09554258  0.75843897  0.43699913    -0.10050
C498        C  0.14680737  0.78494223  0.43897668     0.06140
C499        C  0.16948233  0.75515246  0.44318728    -0.03820
C500        C  0.14333984  0.70532995  0.43624585    -0.08270
C501        C  0.09592606  0.68372101  0.42368839     0.05260
C502        C  0.07163747  0.71071731  0.42478672    -0.03290
Br503      Br  0.00974947  0.68759030  0.40194561    -0.02990
H504        H  0.07445089  0.77626459  0.43990000     0.09170
H505        H  0.15999594  0.68318944  0.44106924     0.07190
Br506      Br  0.23324965  0.77475412  0.46174752    -0.03420
C507        C  0.16905589  0.91065835  0.44968160    -0.10050
C508        C  0.14679342  0.86841309  0.42817970     0.06140
C509        C  0.10282102  0.86088100  0.40997672    -0.03820
C510        C  0.08364105  0.89188555  0.41524780    -0.08270
C511        C  0.10606521  0.93170980  0.43768419     0.05260
C512        C  0.14941056  0.94097174  0.45489875    -0.03290
Br513      Br  0.18801454  0.49822751  0.48253524    -0.02990
H514        H  0.20454898  0.92505511  0.46055669     0.09170
H515        H  0.05091285  0.88522571  0.40097997     0.07190
Br516      Br  0.06649802  0.81367859  0.37351179    -0.03420
C517        C  0.24091641  0.87696966  0.46658502    -0.10050
C518        C  0.22847275  0.86316660  0.42958474     0.06140
C519        C  0.26812239  0.87121864  0.40454773    -0.03820
C520        C  0.31571409  0.90398660  0.41313017    -0.08270
C521        C  0.32638941  0.92570678  0.44739552     0.05260
C522        C  0.28845581  0.91084434  0.47507753    -0.03290
Br523      Br  0.29606886  0.43754293  0.52387673    -0.02990
H524        H  0.21243591  0.86509976  0.48819581     0.09170
H525        H  0.34494054  0.91108332  0.39328506     0.07190
Br526      Br  0.26565588  0.83259402  0.36323987    -0.03420
C527        C  0.19058666  0.87501033  0.31421650    -0.10050
C528        C  0.16548736  0.82954638  0.29723355     0.06140
C529        C  0.14923743  0.78679564  0.32136510    -0.03820
C530        C  0.15343578  0.79139344  0.35951631    -0.08270
C531        C  0.17295859  0.83613030  0.37650131     0.05260
C532        C  0.19336490  0.87895484  0.35265212    -0.03290
Br533      Br  0.22756554  0.94472344  0.36905948    -0.02990
H534        H  0.20557330  0.90870603  0.29728596     0.09170
H535        H  0.14330630  0.75862945  0.37563400     0.07190
Br536      Br  0.12690921  0.71958415  0.31099438    -0.03420
C537        C  0.22351761  0.61247008  0.20821302    -0.10050
C538        C  0.19310645  0.60466345  0.17755490     0.06140
C539        C  0.21469931  0.62821500  0.14304173    -0.03820
C540        C  0.26495555  0.65680280  0.13955478    -0.08270
C541        C  0.29717126  0.66923314  0.17023220     0.05240
C542        C  0.27420981  0.64366216  0.20512463    -0.03290
Br543      Br  0.30737900  0.64613484  0.25050690    -0.02990
H544        H  0.20774293  0.59420640  0.23527247     0.09170
H545        H  0.27685916  0.66668155  0.11102923     0.07190
Br546      Br  0.17855946  0.62467854  0.09886006    -0.03420
C547        C  0.39260224  0.82997363  0.19582972    -0.10050
C548        C  0.43706220  0.85685626  0.17527489     0.06140
C549        C  0.45840473  0.83109744  0.16055405    -0.03820
C550        C  0.43415843  0.78034087  0.16495830    -0.08270
C551        C  0.38477311  0.75258021  0.17849071     0.05260
C552        C  0.36610110  0.77881103  0.19723777    -0.03290
Br553      Br  0.30382827  0.75051903  0.22195977    -0.02990
H554        H  0.37640535  0.84899380  0.20880746     0.09170
H555        H  0.45166499  0.76199723  0.15265428     0.07190
Br556      Br  0.01774304  0.86129762  0.13073288    -0.03420
C557        C  0.43147894  0.64564578  0.20578859    -0.10050
C558        C  0.41841674  0.60667249  0.18255750     0.06140
C559        C  0.37934375  0.59369061  0.15864249    -0.03820
C560        C  0.35555762  0.62088961  0.15754694    -0.08270
C561        C  0.37379272  0.66529400  0.17618674     0.05260
C562        C  0.41018466  0.67509280  0.20310747    -0.03290
Br563      Br  0.42890701  0.72201122  0.24134453    -0.02990
H564        H  0.45771769  0.65243120  0.22712301     0.09170
H565        H  0.32565259  0.61011666  0.13863905     0.07190
Br566      Br  0.35465638  0.53707783  0.12909242    -0.03420
C567        C  0.21360269  0.61640941  0.00711123    -0.10050
C568        C  0.19725838  0.62342653  0.47260413     0.06140
C569        C  0.23268072  0.65539684  0.44523175    -0.03820
C570        C  0.28214204  0.68295167  0.45462535    -0.08270
C571        C  0.29910200  0.67640569  0.48992685     0.05260
C572        C  0.26302540  0.63869985  0.01485555    -0.03290
Br573      Br  0.27390172  0.60455044  0.05579047    -0.02990
H574        H  0.18757252  0.58836735  0.02682449     0.09170
H575        H  0.30807109  0.70772925  0.43324523     0.07190
Br576      Br  0.21695004  0.66132662  0.39402737    -0.03420
C577        C  0.35817778  0.78807944  0.99106410    -0.10050
C578        C  0.37885425  0.75980093  0.48051157     0.06140
C579        C  0.42452450  0.78708140  0.46082130    -0.03820
C580        C  0.45453050  0.83722083  0.46718373    -0.08270
C581        C  0.43773172  0.86152810  0.48996229     0.05260
C582        C  0.38774043  0.83654097  0.00006996    -0.03290
Br583      Br  0.35799872  0.86607114  0.02778813    -0.02990
H584        H  0.31936853  0.77132429  0.99628282     0.09170
H585        H  0.48940590  0.85778308  0.45240780     0.07190
Br586      Br  0.44127085  0.76281078  0.41790003    -0.03420
C587        C  0.35403896  0.63479441  0.46317156    -0.10050
C588        C  0.38194220  0.67909498  0.48104925     0.06140
C589        C  0.43231836  0.69366552  0.98749181    -0.03820
C590        C  0.44928203  0.66106029  0.98132093    -0.08270
C591        C  0.41825091  0.61485560  0.46851863     0.05260
C592        C  0.37125864  0.60285948  0.45761871    -0.03290
Br593      Br  0.32696890  0.54135056  0.43720904    -0.02990
H594        H  0.31705064  0.62218786  0.45517843     0.09170
H595        H  0.48639569  0.67110895  0.98793540     0.07190
Br596      Br  0.47873351  0.75141388  0.01206239    -0.03420
C597        C  0.34305024  0.73273610  0.06086678    -0.10050
C598        C  0.36205204  0.70787592  0.04085222     0.06140
C599        C  0.38506957  0.68678184  0.06324651    -0.03820
C600        C  0.39452276  0.69837403  0.10022748    -0.08270
C601        C  0.36615936  0.71317335  0.12013399     0.05260
C602        C  0.34903640  0.74002412  0.09889032    -0.03290
Br603      Br  0.31866486  0.77434963  0.11915885    -0.02990
H604        H  0.31735444  0.74143325  0.04875479     0.09170
H605        H  0.41784122  0.68744980  0.11447145     0.07190
Br606      Br  0.38718777  0.62754800  0.05586052    -0.03420
C607        C  0.35569513  0.70531955  0.49731463    -0.03380
C608        C  0.35469512  0.70035434  0.66316643    -0.03380
C609        C  0.17374690  0.83804012  0.91938975    -0.03380
C610        C  0.16091655  0.83292790  0.75413975    -0.03380
O611        O  0.38878576  0.97385390  0.98716398    -0.81030
O612        O  0.06466857  0.47326447  0.91501780    -0.81060
O613        O  0.48388010  0.55201505  0.87555736    -0.81060
O614        O  0.50154676  0.94069279  0.01030439    -0.81010
O615        O  0.01611124  0.50632938  0.87064419    -0.81130
O616        O  0.44658682  0.93587321  0.97046422    -0.81050
O617        O  0.08984115  0.98352446  0.97330585    -0.81030
O618        O  0.41199417  0.47732472  0.92852958    -0.81070
C619        C  0.37735008  0.96087575  0.95430837     1.08660
C620        C  0.08503014  0.96401510  0.94214663     1.08540
C621        C  0.99644757  0.52817842  0.85478531     1.08680
C622        C  0.46457858  0.91555816  0.99017466     1.08560
O623        O  0.45504828  0.98844982  0.53574084    -0.81030
O624        O  0.08095306  0.60727719  0.89825754    -0.81110
O625        O  0.43417409  0.56950288  0.92721266    -0.81050
O626        O  0.11310272  0.57904668  0.99231366    -0.81030
O627        O  0.13216921  0.57080891  0.93434613    -0.81080
O628        O  0.45674802  0.56645047  0.98516075    -0.81040
O629        O  0.03061118  0.04127956  0.53765267    -0.81000
O630        O  0.02970939  0.60880876  0.93952748    -0.81070
Co631      Co  0.45579911  0.00059751  0.97830192     1.51530
Co632      Co  0.06894850  0.53789951  0.90764138     1.51690
Co633      Co  0.47576633  0.54358849  0.93331208     1.51570
Co634      Co  0.05581762  0.01226864  0.00055345     1.51470
O635        O  0.02284641  0.52297812  0.95433911    -1.42970
C636        C  0.49080106  0.01493179  0.55550498     1.08580
C637        C  0.06792044  0.63053427  0.91973316     1.08670
C638        C  0.43669878  0.58201909  0.96057823     1.08610
C639        C  0.14443728  0.59075286  0.96556064     1.08590
O640        O  0.40852907  0.46261134  0.73959085    -0.81030
O641        O  0.07184605  0.96804983  0.68643896    -0.81060
O642        O  0.44396541  0.93122087  0.69211171    -0.81060
O643        O  0.02719556  0.52686610  0.79251333    -0.81010
O644        O  0.49184427  0.93707785  0.64608237    -0.81130
O645        O  0.46004940  0.53202733  0.79438554    -0.81050
O646        O  0.04284507  0.46266300  0.74390800    -0.81030
O647        O  0.38174924  0.96520495  0.68193662    -0.81070
C648        C  0.37265100  0.95198512  0.71668736     1.08660
C649        C  0.06266222  0.94885458  0.71959158     1.08540
C650        C  0.45936808  0.91093653  0.67095786     1.08680
C651        C  0.99336215  0.52867662  0.81196444     1.08560
O652        O  0.02139930  0.59934557  0.74086147    -0.81030
O653        O  0.02989145  0.03770182  0.61421672    -0.81110
O654        O  0.45381680  0.55823109  0.66474608    -0.81050
O655        O  0.12402838  0.54775057  0.71349130    -0.81030
O656        O  0.10973883  0.56767878  0.65796172    -0.81080
O657        O  0.43776174  0.55974504  0.72383910    -0.81040
O658        O  0.09246865  0.60580908  0.73679467    -0.81000
O659        O  0.45221584  0.98703784  0.62017660    -0.81070
Co660      Co  0.47515984  0.52847399  0.74128137     1.51530
Co661      Co  0.04826188  0.00472427  0.65413679     1.51690
Co662      Co  0.45055477  0.99514816  0.67825154     1.51570
Co663      Co  0.06356598  0.53338923  0.74120325     1.51470
O664        O  0.01667609  0.52581716  0.69587154    -1.42970
C665        C  0.06653578  0.62561975  0.73551019     1.08580
C666        C  0.48974037  0.01365103  0.59854968     1.08670
C667        C  0.43833495  0.57412944  0.69029643     1.08610
C668        C  0.13970408  0.57213177  0.68291030     1.08590
C669        C  0.05951739  0.69926766  0.74400744    -0.10050
C670        C  0.08682044  0.67945051  0.72954030     0.06140
C671        C  0.13189664  0.71215631  0.71138261    -0.03820
C672        C  0.15179505  0.76262161  0.71393353    -0.08270
C673        C  0.13030431  0.78152993  0.73796035     0.05260
C674        C  0.08040636  0.74925065  0.74886458    -0.03290
Br675      Br  0.04093793  0.76487671  0.77988421    -0.02990
H676        H  0.02449736  0.67530610  0.75764585     0.09170
H677        H  0.18658380  0.78632026  0.69985906     0.07190
Br678      Br  0.16915400  0.69171886  0.68340423    -0.03420
C679        C  0.11015572  0.87484143  0.77331062    -0.10050
C680        C  0.13291187  0.86189944  0.74463653     0.06140
C681        C  0.12744562  0.87519466  0.70725981    -0.03820
C682        C  0.10409292  0.90254002  0.70023177    -0.08270
C683        C  0.08222956  0.91531048  0.72918873     0.05260
C684        C  0.08491112  0.89999419  0.76614143    -0.03290
Br685      Br  0.05568682  0.91207782  0.80893889    -0.02990
H686        H  0.10892636  0.86323420  0.80222520     0.09170
H687        H  0.10418417  0.41483262  0.67146746     0.07190
Br688      Br  0.15311446  0.85975786  0.66410332    -0.03420
C689        C  0.30053652  0.87411618  0.74065827    -0.10050
C690        C  0.32058858  0.92284977  0.72910132     0.06140
C691        C  0.28918627  0.94214758  0.72569925    -0.03820
C692        C  0.23858485  0.91196371  0.72931029    -0.08270
C693        C  0.21659013  0.86179741  0.74038134     0.05260
C694        C  0.25020472  0.84436319  0.74769830    -0.03290
Br695      Br  0.23414106  0.78273299  0.77100332    -0.02990
H696        H  0.32445457  0.85936962  0.74557041     0.09170
H697        H  0.21734062  0.93002568  0.72737670     0.07190
Br698      Br  0.31344398  0.51071656  0.72471235    -0.03420
C699        C  0.09556845  0.75844874  0.93699879    -0.10050
C700        C  0.14683340  0.78495231  0.93897531     0.06140
C701        C  0.16950868  0.75516274  0.94318609    -0.03820
C702        C  0.14336468  0.70533931  0.93624769    -0.08270
C703        C  0.09595142  0.68373056  0.92368910     0.05260
C704        C  0.07166336  0.71072724  0.92478622    -0.03290
Br705      Br  0.00977581  0.68760014  0.90194429    -0.02990
H706        H  0.07447666  0.77627417  0.93989992     0.09170
H707        H  0.16001973  0.68319832  0.94107293     0.07190
Br708      Br  0.23328136  0.77476704  0.96173615    -0.03420
C709        C  0.16907883  0.91066545  0.94968223    -0.10050
C710        C  0.14681678  0.86842143  0.92817911     0.06140
C711        C  0.10284438  0.86089003  0.90997624    -0.03820
C712        C  0.08366588  0.89189590  0.91524664    -0.08270
C713        C  0.10609029  0.93171978  0.93768328     0.05260
C714        C  0.14943428  0.94097954  0.95489921    -0.03290
Br715      Br  0.18803771  0.49823265  0.98253813    -0.02990
H716        H  0.20457063  0.92506011  0.96055934     0.09170
H717        H  0.05093829  0.88523707  0.90097833     0.07190
Br718      Br  0.06651841  0.81368605  0.87351299    -0.03420
C719        C  0.24094204  0.87697754  0.96658123    -0.10050
C720        C  0.22849794  0.86317843  0.92958015     0.06140
C721        C  0.26814775  0.87123578  0.90454091    -0.03820
C722        C  0.31573956  0.90400170  0.91312499    -0.08270
C723        C  0.32641517  0.92571569  0.94739284     0.05260
C724        C  0.28848149  0.91085012  0.97507512    -0.03290
Br725      Br  0.29609424  0.43754189  0.02387702    -0.02990
H726        H  0.21246174  0.86510474  0.98819255     0.09170
H727        H  0.34496603  0.91110221  0.89327860     0.07190
Br728      Br  0.26568287  0.83262228  0.86322535    -0.03420
C729        C  0.19058567  0.87501349  0.81421429    -0.10050
C730        C  0.16548586  0.82954803  0.79723314     0.06140
C731        C  0.14924359  0.78679903  0.82136540    -0.03820
C732        C  0.15345654  0.79140005  0.85951571    -0.08270
C733        C  0.17297852  0.83613763  0.87649951     0.05260
C734        C  0.19337565  0.87896066  0.85264927    -0.03290
Br735      Br  0.22757933  0.94473046  0.86905422    -0.02990
H736        H  0.20556609  0.90870822  0.79728318     0.09170
H737        H  0.14333750  0.75863840  0.87563342     0.07190
Br738      Br  0.12690398  0.71958514  0.81099612    -0.03420
C739        C  0.22351406  0.61244951  0.70820286    -0.10050
C740        C  0.19310203  0.60466032  0.67754793     0.06140
C741        C  0.21469339  0.62823925  0.64304181    -0.03820
C742        C  0.26494920  0.65683474  0.63955735    -0.08270
C743        C  0.29716784  0.66923806  0.67023162     0.05240
C744        C  0.27420561  0.64364637  0.70511827    -0.03290
Br745      Br  0.30737107  0.64609623  0.75049838    -0.02990
H746        H  0.20774029  0.59416836  0.73525774     0.09170
H747        H  0.27684741  0.66674242  0.61103298     0.07190
Br748      Br  0.17855116  0.62474014  0.59886897    -0.03420
C749        C  0.39260783  0.82996783  0.69584377    -0.10050
C750        C  0.43706139  0.85685238  0.67528080     0.06140
C751        C  0.45840241  0.83109563  0.66055295    -0.03820
C752        C  0.43415777  0.78033902  0.66495502    -0.08270
C753        C  0.38477467  0.75257750  0.67849187     0.05260
C754        C  0.36610761  0.77880508  0.69724968    -0.03290
Br755      Br  0.30384498  0.75050579  0.72198898    -0.02990
H756        H  0.37641490  0.84898627  0.70883016     0.09170
H757        H  0.45166181  0.76199636  0.65264498     0.07190
Br758      Br  0.01773605  0.86129865  0.63072581    -0.03420
C759        C  0.43147437  0.64564302  0.70578969    -0.10050
C760        C  0.41840989  0.60666761  0.68256070     0.06140
C761        C  0.37933442  0.59368382  0.65864760    -0.03820
C762        C  0.35554872  0.62088352  0.65755162    -0.08270
C763        C  0.37378837  0.66529119  0.67618719     0.05260
C764        C  0.41018114  0.67509076  0.70310755    -0.03290
Br765      Br  0.42890050  0.72200662  0.74134655    -0.02990
H766        H  0.45771418  0.65242947  0.72712402     0.09170
H767        H  0.32564135  0.61010928  0.63864574     0.07190
Br768      Br  0.35464450  0.53706878  0.62910013    -0.03420
C769        C  0.21357449  0.61641433  0.50711943    -0.10050
C770        C  0.19728423  0.62343406  0.97260101     0.06140
C771        C  0.23270519  0.65541210  0.94523070    -0.03820
C772        C  0.28216638  0.68296758  0.95462476    -0.08270
C773        C  0.29912721  0.67641257  0.98992296     0.05260
C774        C  0.26299685  0.63870565  0.51486604    -0.03290
Br775      Br  0.27386324  0.60457083  0.55581741    -0.02990
H776        H  0.18754214  0.58838166  0.52683743     0.09170
H777        H  0.30809434  0.70775239  0.93324719     0.07190
Br778      Br  0.21697390  0.66134853  0.89402766    -0.03420
C779        C  0.35814914  0.78806891  0.49105501    -0.10050
C780        C  0.37887927  0.75981025  0.98051484     0.06140
C781        C  0.42454600  0.78708999  0.96081946    -0.03820
C782        C  0.45455372  0.83722986  0.96718009    -0.08270
C783        C  0.43776031  0.86153796  0.98996305     0.05260
C784        C  0.38770945  0.83653055  0.50006233    -0.03290
Br785      Br  0.35796232  0.86605799  0.52777728    -0.02990
H786        H  0.31933957  0.77131016  0.49627533     0.09170
H787        H  0.48942624  0.85779163  0.95240004     0.07190
Br788      Br  0.44128678  0.76281638  0.91789717    -0.03420
C789        C  0.35406465  0.63480238  0.96317241    -0.10050
C790        C  0.38196747  0.67910338  0.98104972     0.06140
C791        C  0.43229234  0.69365494  0.48749361    -0.03820
C792        C  0.44925517  0.66104924  0.48132300    -0.08270
C793        C  0.41827697  0.61486476  0.96851973     0.05260
C794        C  0.37128407  0.60286720  0.95762106    -0.03290
Br795      Br  0.32699381  0.54135694  0.93721340    -0.02990
H796        H  0.31707674  0.62219585  0.95517796     0.09170
H797        H  0.48636806  0.67109652  0.48793900     0.07190
Br798      Br  0.47870800  0.75140191  0.51206558    -0.03420
C799        C  0.34305824  0.73275145  0.56086823    -0.10050
C800        C  0.36203628  0.70787177  0.54085180     0.06140
C801        C  0.38504220  0.68676285  0.56324338    -0.03820
C802        C  0.39450564  0.69835551  0.60022346    -0.08270
C803        C  0.36615790  0.71317100  0.62013292     0.05260
C804        C  0.34905412  0.74004056  0.59889119    -0.03290
Br805      Br  0.31870964  0.77439031  0.61916289    -0.02990
H806        H  0.31737150  0.74146407  0.54876024     0.09170
H807        H  0.41781861  0.68742135  0.61446377     0.07190
Br808      Br  0.38713211  0.62751510  0.55585245    -0.03420
C809        C  0.85571896  0.20532706  0.99731405    -0.03380
C810        C  0.85469717  0.20035539  0.16316695    -0.03380
C811        C  0.67372265  0.33803055  0.41939193    -0.03380
C812        C  0.66091933  0.33292846  0.25414017    -0.03380
O813        O  0.88876057  0.47384725  0.48716523    -0.81030
O814        O  0.56464371  0.97325445  0.41501896    -0.81060
O815        O  0.98385682  0.05200508  0.37555679    -0.81060
O816        O  0.00151966  0.44068222  0.51030489    -0.81010
O817        O  0.51608893  0.00632014  0.37064531    -0.81130
O818        O  0.94655931  0.43586446  0.47046611    -0.81050
O819        O  0.58981460  0.48351294  0.47330735    -0.81030
O820        O  0.91196802  0.97731529  0.42853070    -0.81070
C821        C  0.87732433  0.46086781  0.45430988     1.08660
C822        C  0.58500441  0.46400436  0.44214789     1.08540
C823        C  0.49642804  0.02817087  0.35478514     1.08680
C824        C  0.96455047  0.41554837  0.49017578     1.08560
O825        O  0.95507211  0.48845712  0.03573874    -0.81030
O826        O  0.58092958  0.10726750  0.39825857    -0.81110
O827        O  0.93414870  0.06949324  0.42721215    -0.81050
O828        O  0.61307644  0.07903594  0.49231515    -0.81030
O829        O  0.63214488  0.07079859  0.43434851    -0.81080
O830        O  0.95672319  0.06644272  0.48516048    -0.81040
O831        O  0.53063524  0.54128732  0.03765407    -0.81000
O832        O  0.52968398  0.10879914  0.43952664    -0.81070
Co833      Co  0.95577372  0.50058941  0.47830328     1.51530
Co834      Co  0.56892466  0.03788979  0.40764286     1.51690
Co835      Co  0.97574097  0.04357874  0.43331186     1.51570
Co836      Co  0.55579156  0.51225818  0.50055406     1.51470
O837        O  0.52282086  0.02296819  0.45433971    -1.42970
C838        C  0.99082289  0.51493949  0.05550427     1.08580
C839        C  0.56789548  0.13052463  0.41973282     1.08670
C840        C  0.93667310  0.08201003  0.46057760     1.08610
C841        C  0.64441189  0.09074281  0.46556297     1.08590
O842        O  0.90853016  0.96261145  0.23958645    -0.81030
O843        O  0.57185293  0.46805592  0.18644406    -0.81060
O844        O  0.94396998  0.43122504  0.19210751    -0.81060
O845        O  0.52718619  0.02686437  0.29251515    -0.81010
O846        O  0.99185504  0.43708329  0.14608228    -0.81130
O847        O  0.96004025  0.03202619  0.29438228    -0.81050
O848        O  0.54284805  0.96266560  0.24391239    -0.81030
O849        O  0.88175433  0.46520915  0.18193142    -0.81070
C850        C  0.87265360  0.45198662  0.21668177     1.08660
C851        C  0.56266724  0.44885898  0.21959613     1.08540
C852        C  0.95937378  0.41094107  0.17095438     1.08680
C853        C  0.49334997  0.02867345  0.31196382     1.08560
O854        O  0.52139718  0.09934656  0.24086132    -0.81030
O855        O  0.52990433  0.53770975  0.11421926    -0.81110
O856        O  0.95382495  0.05823682  0.16474345    -0.81050
O857        O  0.62403206  0.04775632  0.21349945    -0.81030
O858        O  0.60974423  0.06768582  0.15796974    -0.81080
O859        O  0.93776150  0.05974488  0.22383548    -0.81040
O860        O  0.59246723  0.10581086  0.23679973    -0.81000
O861        O  0.95222867  0.48704501  0.12017330    -0.81070
Co862      Co  0.97515892  0.02847475  0.24128026     1.51530
Co863      Co  0.54827050  0.50473042  0.15414052     1.51690
Co864      Co  0.95056088  0.49515271  0.17824838     1.51570
Co865      Co  0.56356620  0.03339141  0.24120838     1.51470
O866        O  0.51667984  0.02581960  0.19587357    -1.42970
C867        C  0.56653388  0.12562080  0.23551144     1.08580
C868        C  0.98975599  0.51365877  0.09854899     1.08670
C869        C  0.93834003  0.07413305  0.19029324     1.08610
C870        C  0.63970863  0.07213739  0.18291844     1.08590
C871        C  0.55951819  0.19926933  0.24400937    -0.10050
C872        C  0.58681881  0.17945115  0.22953995     0.06140
C873        C  0.63189298  0.21215533  0.21137859    -0.03820
C874        C  0.65179570  0.26262110  0.21393286    -0.08270
C875        C  0.63030645  0.28153059  0.23796050     0.05260
C876        C  0.58040847  0.24925238  0.24886563    -0.03290
Br877      Br  0.54094096  0.26487946  0.27988536    -0.02990
H878        H  0.52449928  0.17530868  0.25764941     0.09170
H879        H  0.68658418  0.28631902  0.19985777     0.07190
Br880      Br  0.66913432  0.19171300  0.18338297    -0.03420
C881        C  0.61015965  0.37484314  0.27331311    -0.10050
C882        C  0.63291479  0.36190076  0.24463828     0.06140
C883        C  0.62744816  0.37519694  0.20726196    -0.03820
C884        C  0.60409714  0.40254412  0.20023503    -0.08270
C885        C  0.58223426  0.41531432  0.22919256     0.05260
C886        C  0.58491579  0.39999696  0.26614485    -0.03290
Br887      Br  0.55569280  0.41208108  0.30894286    -0.02990
H888        H  0.60892990  0.36323502  0.30222754     0.09170
H889        H  0.60418920  0.91483820  0.17147106     0.07190
Br890      Br  0.65311460  0.35975929  0.16410448    -0.03420
C891        C  0.80053931  0.37411785  0.24065490    -0.10050
C892        C  0.82059051  0.42285044  0.22909466     0.06140
C893        C  0.78918779  0.44214789  0.22569324    -0.03820
C894        C  0.73858661  0.41196428  0.22930839    -0.08270
C895        C  0.71659264  0.36179849  0.24038108     0.05260
C896        C  0.75020781  0.34436510  0.24769733    -0.03290
Br897      Br  0.73414505  0.28273717  0.27100572    -0.02990
H898        H  0.82445792  0.35937214  0.24556811     0.09170
H899        H  0.71734243  0.43002633  0.22737576     0.07190
Br900      Br  0.81344521  0.01071699  0.22470143    -0.03420
C901        C  0.59554258  0.25843897  0.43699911    -0.10050
C902        C  0.64680737  0.28494222  0.43897666     0.06140
C903        C  0.66948233  0.25515246  0.44318726    -0.03820
C904        C  0.64333984  0.20532995  0.43624584    -0.08270
C905        C  0.59592606  0.18372100  0.42368838     0.05260
C906        C  0.57163747  0.21071730  0.42478671    -0.03290
Br907      Br  0.50974947  0.18759029  0.40194560    -0.02990
H908        H  0.57445089  0.27626458  0.43989999     0.09170
H909        H  0.65999595  0.18318944  0.44106923     0.07190
Br910      Br  0.73324966  0.27475413  0.46174749    -0.03420
C911        C  0.66905589  0.41065834  0.44968158    -0.10050
C912        C  0.64679342  0.36841308  0.42817968     0.06140
C913        C  0.60282101  0.36088100  0.40997671    -0.03820
C914        C  0.58364104  0.39188554  0.41524780    -0.08270
C915        C  0.60606520  0.43170979  0.43768419     0.05260
C916        C  0.64941055  0.44097173  0.45489874    -0.03290
Br917      Br  0.68801454  0.99822750  0.48253523    -0.02990
H918        H  0.70454897  0.42505511  0.46055667     0.09170
H919        H  0.55091284  0.38522570  0.40097996     0.07190
Br920      Br  0.56649802  0.31367859  0.37351177    -0.03420
C921        C  0.74091640  0.37696965  0.46658501    -0.10050
C922        C  0.72847275  0.36316660  0.42958472     0.06140
C923        C  0.76812239  0.37121865  0.40454771    -0.03820
C924        C  0.81571409  0.40398661  0.41313016    -0.08270
C925        C  0.82638940  0.42570677  0.44739551     0.05260
C926        C  0.78845580  0.41084433  0.47507751    -0.03290
Br927      Br  0.79606885  0.93754292  0.52387672    -0.02990
H928        H  0.71243590  0.36509975  0.48819579     0.09170
H929        H  0.84494054  0.41108333  0.39328505     0.07190
Br930      Br  0.76565588  0.33259404  0.36323984    -0.03420
C931        C  0.69058665  0.37501032  0.31421649    -0.10050
C932        C  0.66548735  0.32954638  0.29723354     0.06140
C933        C  0.64923741  0.28679564  0.32136508    -0.03820
C934        C  0.65343578  0.29139344  0.35951629    -0.08270
C935        C  0.67295858  0.33613030  0.37650129     0.05260
C936        C  0.69336489  0.37895484  0.35265211    -0.03290
Br937      Br  0.72756554  0.44472343  0.36905947    -0.02990
H938        H  0.70557329  0.40870603  0.29728595     0.09170
H939        H  0.64330630  0.25862945  0.37563398     0.07190
Br940      Br  0.62690916  0.21958415  0.31099436    -0.03420
C941        C  0.72351763  0.11247001  0.20821299    -0.10050
C942        C  0.69310646  0.10466343  0.17755488     0.06140
C943        C  0.71469932  0.12821507  0.14304174    -0.03820
C944        C  0.76495556  0.15680290  0.13955479    -0.08270
C945        C  0.79717127  0.16923316  0.17023221     0.05240
C946        C  0.77420983  0.14366212  0.20512462    -0.03290
Br947      Br  0.80737901  0.14613473  0.25050687    -0.02990
H948        H  0.70774295  0.09420627  0.23527243     0.09170
H949        H  0.77685914  0.16668176  0.11102925     0.07190
Br950      Br  0.67855945  0.12467872  0.09886010    -0.03420
C951        C  0.89260229  0.32997362  0.19582976    -0.10050
C952        C  0.93706223  0.35685625  0.17527490     0.06140
C953        C  0.95840475  0.33109743  0.16055404    -0.03820
C954        C  0.93415846  0.28034087  0.16495829    -0.08270
C955        C  0.88477314  0.25258021  0.17849071     0.05260
C956        C  0.86610115  0.27881103  0.19723781    -0.03290
Br957      Br  0.80382836  0.25051900  0.22195987    -0.02990
H958        H  0.87640542  0.34899379  0.20880753     0.09170
H959        H  0.95166500  0.26199723  0.15265425     0.07190
Br960      Br  0.51774304  0.36129762  0.13073291    -0.03420
C961        C  0.93147897  0.14564578  0.20578856    -0.10050
C962        C  0.91841674  0.10667248  0.18255749     0.06140
C963        C  0.87934372  0.09369059  0.15864250    -0.03820
C964        C  0.85555760  0.12088959  0.15754696    -0.08270
C965        C  0.87379273  0.16529399  0.17618674     0.05260
C966        C  0.91018468  0.17509280  0.20310746    -0.03290
Br967      Br  0.92890704  0.22201121  0.24134452    -0.02990
H968        H  0.95771773  0.15243121  0.22712297     0.09170
H969        H  0.82565256  0.11011663  0.13863908     0.07190
Br970      Br  0.85465633  0.03707779  0.12909244    -0.03420
C971        C  0.71360268  0.11640946  0.00711126    -0.10050
C972        C  0.69725838  0.12342652  0.47260413     0.06140
C973        C  0.73268072  0.15539684  0.44523175    -0.03820
C974        C  0.78214205  0.18295168  0.45462535    -0.08270
C975        C  0.79910201  0.17640569  0.48992684     0.05260
C976        C  0.76302538  0.13869990  0.01485559    -0.03290
Br977      Br  0.77390167  0.10455053  0.05579056    -0.02990
H978        H  0.68757250  0.08836743  0.02682454     0.09170
H979        H  0.80807109  0.20772926  0.43324523     0.07190
Br980      Br  0.71695004  0.16132662  0.39402736    -0.03420
C981        C  0.85817778  0.28807943  0.99106407    -0.10050
C982        C  0.87885425  0.25980094  0.48051158     0.06140
C983        C  0.92452449  0.28708140  0.46082129    -0.03820
C984        C  0.95453049  0.33722084  0.46718372    -0.08270
C985        C  0.93773172  0.36152810  0.48996229     0.05260
C986        C  0.88774042  0.33654096  0.00006992    -0.03290
Br987      Br  0.85799869  0.36607113  0.02778809    -0.02990
H988        H  0.81936852  0.27132427  0.99628279     0.09170
H989        H  0.98940589  0.35778309  0.45240779     0.07190
Br990      Br  0.94127084  0.26281078  0.41790003    -0.03420
C991        C  0.85403896  0.13479441  0.46317156    -0.10050
C992        C  0.88194221  0.17909498  0.48104925     0.06140
C993        C  0.93231835  0.19366550  0.98749182    -0.03820
C994        C  0.94928202  0.16106028  0.98132094    -0.08270
C995        C  0.91825092  0.11485561  0.46851862     0.05260
C996        C  0.87125864  0.10285948  0.45761871    -0.03290
Br997      Br  0.82696890  0.04135056  0.43720903    -0.02990
H998        H  0.81705064  0.12218786  0.45517843     0.09170
H999        H  0.98639568  0.17110892  0.98793542     0.07190
Br1000     Br  0.97873350  0.25141386  0.01206241    -0.03420
C1001       C  0.84305032  0.23273617  0.06086679    -0.10050
C1002       C  0.86205205  0.20787592  0.04085222     0.06140
C1003       C  0.88506954  0.18678180  0.06324651    -0.03820
C1004       C  0.89452274  0.19837398  0.10022747    -0.08270
C1005       C  0.86615938  0.21317334  0.12013399     0.05260
C1006       C  0.84903648  0.24002417  0.09889032    -0.03290
Br1007     Br  0.81866503  0.27434976  0.11915886    -0.02990
H1008       H  0.81735455  0.24143336  0.04875479     0.09170
H1009       H  0.91784118  0.18744972  0.11447145     0.07190
Br1010     Br  0.88718766  0.12754792  0.05586050    -0.03420
C1011       C  0.85569513  0.20531955  0.49731463    -0.03380
C1012       C  0.85469512  0.20035433  0.66316643    -0.03380
C1013       C  0.67374690  0.33804012  0.91938977    -0.03380
C1014       C  0.66091655  0.33292790  0.75413977    -0.03380
O1015       O  0.88878577  0.47385390  0.98716398    -0.81030
O1016       O  0.56466856  0.97326448  0.91501782    -0.81060
O1017       O  0.98388010  0.05201505  0.87555735    -0.81060
O1018       O  0.00154676  0.44069278  0.01030438    -0.81010
O1019       O  0.51611124  0.00632938  0.87064420    -0.81130
O1020       O  0.94658682  0.43587321  0.97046421    -0.81050
O1021       O  0.58984115  0.48352447  0.97330586    -0.81030
O1022       O  0.91199416  0.97732471  0.92852958    -0.81070
C1023       C  0.87735009  0.46087575  0.95430837     1.08660
C1024       C  0.58503014  0.46401510  0.94214664     1.08540
C1025       C  0.49644757  0.02817842  0.85478532     1.08680
C1026       C  0.96457858  0.41555815  0.99017464     1.08560
O1027       O  0.95504827  0.48844982  0.53574083    -0.81030
O1028       O  0.58095305  0.10727719  0.89825755    -0.81110
O1029       O  0.93417409  0.06950288  0.92721265    -0.81050
O1030       O  0.61310271  0.07904669  0.99231367    -0.81030
O1031       O  0.63216920  0.07080892  0.93434615    -0.81080
O1032       O  0.95674802  0.06645046  0.98516074    -0.81040
O1033       O  0.53061118  0.54127955  0.53765268    -0.81000
O1034       O  0.52970938  0.10880876  0.93952749    -0.81070
Co1035     Co  0.95579912  0.50059751  0.97830191     1.51530
Co1036     Co  0.56894849  0.03789951  0.90764139     1.51690
Co1037     Co  0.97576633  0.04358848  0.93331207     1.51570
Co1038     Co  0.55581762  0.51226864  0.00055345     1.51470
O1039       O  0.52284641  0.02297812  0.95433912    -1.42970
C1040       C  0.99080105  0.51493179  0.55550497     1.08580
C1041       C  0.56792043  0.13053427  0.91973317     1.08670
C1042       C  0.93669877  0.08201908  0.96057823     1.08610
C1043       C  0.64443727  0.09075287  0.96556065     1.08590
O1044       O  0.90852908  0.96261134  0.73959084    -0.81030
O1045       O  0.57184606  0.46804983  0.68643897    -0.81060
O1046       O  0.94396541  0.43122088  0.69211170    -0.81060
O1047       O  0.52719556  0.02686611  0.79251334    -0.81010
O1048       O  0.99184427  0.43707785  0.64608236    -0.81130
O1049       O  0.96004940  0.03202733  0.79438553    -0.81050
O1050       O  0.54284507  0.96266301  0.74390802    -0.81030
O1051       O  0.88174924  0.46520495  0.68193662    -0.81070
C1052       C  0.87265101  0.45198512  0.71668736     1.08660
C1053       C  0.56266223  0.44885458  0.71959159     1.08540
C1054       C  0.95936807  0.41093654  0.67095785     1.08680
C1055       C  0.49336215  0.02867662  0.81196445     1.08560
O1056       O  0.52139930  0.09934557  0.74086148    -0.81030
O1057       O  0.52989146  0.53770182  0.61421673    -0.81110
O1058       O  0.95381680  0.05823109  0.66474607    -0.81050
O1059       O  0.62402838  0.04775058  0.71349131    -0.81030
O1060       O  0.60973883  0.06767878  0.65796174    -0.81080
O1061       O  0.93776174  0.05974504  0.72383910    -0.81040
O1062       O  0.59246864  0.10580908  0.73679468    -0.81000
O1063       O  0.95221584  0.48703784  0.62017660    -0.81070
Co1064     Co  0.97515984  0.02847399  0.74128136     1.51530
Co1065     Co  0.54826188  0.50472427  0.65413680     1.51690
Co1066     Co  0.95055477  0.49514816  0.67825153     1.51570
Co1067     Co  0.56356598  0.03338923  0.74120326     1.51470
O1068       O  0.51667610  0.02581716  0.69587155    -1.42970
C1069       C  0.56653578  0.12561975  0.73551020     1.08580
C1070       C  0.98974037  0.51365104  0.59854968     1.08670
C1071       C  0.93833495  0.07412944  0.69029643     1.08610
C1072       C  0.63970408  0.07213178  0.68291032     1.08590
C1073       C  0.55951739  0.19926766  0.74400746    -0.10050
C1074       C  0.58682043  0.17945051  0.72954031     0.06140
C1075       C  0.63189663  0.21215631  0.71138262    -0.03820
C1076       C  0.65179505  0.26262161  0.71393354    -0.08270
C1077       C  0.63030431  0.28152993  0.73796036     0.05260
C1078       C  0.58040636  0.24925065  0.74886460    -0.03290
Br1079     Br  0.54093793  0.26487672  0.77988423    -0.02990
H1080       H  0.52449736  0.17530610  0.75764587     0.09170
H1081       H  0.68658379  0.28632026  0.69985907     0.07190
Br1082     Br  0.66915397  0.19171886  0.68340421    -0.03420
C1083       C  0.61015573  0.37484144  0.77331064    -0.10050
C1084       C  0.63291188  0.36189944  0.74463655     0.06140
C1085       C  0.62744562  0.37519466  0.70725983    -0.03820
C1086       C  0.60409293  0.40254002  0.70023178    -0.08270
C1087       C  0.58222957  0.41531049  0.72918875     0.05260
C1088       C  0.58491113  0.39999420  0.76614144    -0.03290
Br1089     Br  0.55568685  0.41207784  0.80893891    -0.02990
H1090       H  0.60892638  0.36323421  0.80222521     0.09170
H1091       H  0.60418417  0.91483261  0.67146748     0.07190
Br1092     Br  0.65311446  0.35975785  0.66410334    -0.03420
C1093       C  0.80053652  0.37411618  0.74065827    -0.10050
C1094       C  0.82058859  0.42284977  0.72910133     0.06140
C1095       C  0.78918627  0.44214758  0.72569926    -0.03820
C1096       C  0.73858485  0.41196371  0.72931030    -0.08270
C1097       C  0.71659013  0.36179741  0.74038135     0.05260
C1098       C  0.75020472  0.34436319  0.74769831    -0.03290
Br1099     Br  0.73414106  0.28273300  0.77100334    -0.02990
H1100       H  0.82445457  0.35936962  0.74557041     0.09170
H1101       H  0.71734062  0.43002568  0.72737671     0.07190
Br1102     Br  0.81344398  0.01071657  0.72471235    -0.03420
C1103       C  0.59556844  0.25844874  0.93699880    -0.10050
C1104       C  0.64683339  0.28495231  0.93897532     0.06140
C1105       C  0.66950867  0.25516274  0.94318611    -0.03820
C1106       C  0.64336468  0.20533931  0.93624770    -0.08270
C1107       C  0.59595142  0.18373057  0.92368911     0.05260
C1108       C  0.57166335  0.21072724  0.92478623    -0.03290
Br1109     Br  0.50977581  0.18760015  0.90194431    -0.02990
H1110       H  0.57447666  0.27627417  0.93989993     0.09170
H1111       H  0.66001973  0.18319832  0.94107293     0.07190
Br1112     Br  0.73328133  0.27476703  0.96173619    -0.03420
C1113       C  0.66907882  0.41066544  0.94968225    -0.10050
C1114       C  0.64681678  0.36842143  0.92817913     0.06140
C1115       C  0.60284439  0.36089003  0.90997625    -0.03820
C1116       C  0.58366588  0.39189591  0.91524665    -0.08270
C1117       C  0.60609028  0.43171978  0.93768329     0.05260
C1118       C  0.64943428  0.44097953  0.95489923    -0.03290
Br1119     Br  0.68803769  0.99823265  0.98253816    -0.02990
H1120       H  0.70457062  0.42506011  0.96055936     0.09170
H1121       H  0.55093830  0.38523708  0.90097834     0.07190
Br1122     Br  0.56651841  0.31368605  0.87351300    -0.03420
C1123       C  0.74094205  0.37697755  0.96658125    -0.10050
C1124       C  0.72849794  0.36317843  0.92958017     0.06140
C1125       C  0.76814774  0.37123576  0.90454093    -0.03820
C1126       C  0.81573956  0.40400168  0.91312500    -0.08270
C1127       C  0.82641517  0.42571570  0.94739284     0.05260
C1128       C  0.78848150  0.41085013  0.97507513    -0.03290
Br1129     Br  0.79609426  0.93754192  0.02387702    -0.02990
H1130       H  0.71246175  0.36510476  0.98819256     0.09170
H1131       H  0.84496602  0.41110218  0.89327861     0.07190
Br1132     Br  0.76568285  0.33262223  0.86322539    -0.03420
C1133       C  0.69058568  0.37501349  0.81421431    -0.10050
C1134       C  0.66548586  0.32954803  0.79723316     0.06140
C1135       C  0.64924359  0.28679903  0.82136542    -0.03820
C1136       C  0.65345653  0.29140005  0.85951573    -0.08270
C1137       C  0.67297851  0.33613763  0.87649953     0.05260
C1138       C  0.69337566  0.37896066  0.85264928    -0.03290
Br1139     Br  0.72757933  0.44473046  0.86905424    -0.02990
H1140       H  0.70556610  0.40870823  0.79728320     0.09170
H1141       H  0.64333749  0.25863840  0.87563343     0.07190
Br1142     Br  0.62690399  0.21958514  0.81099614    -0.03420
C1143       C  0.72351405  0.11244953  0.70820288    -0.10050
C1144       C  0.69310203  0.10466032  0.67754795     0.06140
C1145       C  0.71469339  0.12823923  0.64304181    -0.03820
C1146       C  0.76494920  0.15683471  0.63955735    -0.08270
C1147       C  0.79716783  0.16923806  0.67023162     0.05240
C1148       C  0.77420561  0.14364639  0.70511828    -0.03290
Br1149     Br  0.80737108  0.14609626  0.75049839    -0.02990
H1150       H  0.70774029  0.09416840  0.73525776     0.09170
H1151       H  0.77684741  0.16674236  0.61103298     0.07190
Br1152     Br  0.67855115  0.12474008  0.59886897    -0.03420
C1153       C  0.89260782  0.32996784  0.69584375    -0.10050
C1154       C  0.93706138  0.35685238  0.67528079     0.06140
C1155       C  0.95840240  0.33109563  0.66055294    -0.03820
C1156       C  0.93415776  0.28033902  0.66495502    -0.08270
C1157       C  0.88477466  0.25257750  0.67849187     0.05260
C1158       C  0.86610760  0.27880508  0.69724967    -0.03290
Br1159     Br  0.80384496  0.25050580  0.72198895    -0.02990
H1160       H  0.87641489  0.34898628  0.70883014     0.09170
H1161       H  0.95166180  0.26199635  0.65264499     0.07190
Br1162     Br  0.51773606  0.36129865  0.63072582    -0.03420
C1163       C  0.93147436  0.14564302  0.70578970    -0.10050
C1164       C  0.91840989  0.10666761  0.68256070     0.06140
C1165       C  0.87933442  0.09368382  0.65864759    -0.03820
C1166       C  0.85554872  0.12088352  0.65755162    -0.08270
C1167       C  0.87378837  0.16529119  0.67618719     0.05260
C1168       C  0.91018114  0.17509075  0.70310755    -0.03290
Br1169     Br  0.92890050  0.22200663  0.74134655    -0.02990
H1170       H  0.95771417  0.15242947  0.72712402     0.09170
H1171       H  0.82564135  0.11010929  0.63864573     0.07190
Br1172     Br  0.85464450  0.03706879  0.62910012    -0.03420
C1173       C  0.71357450  0.11641431  0.50711943    -0.10050
C1174       C  0.69728422  0.12343408  0.97260102     0.06140
C1175       C  0.73270518  0.15541208  0.94523070    -0.03820
C1176       C  0.78216637  0.18296755  0.95462476    -0.08270
C1177       C  0.79912721  0.17641257  0.98992297     0.05260
C1178       C  0.76299685  0.13870564  0.51486603    -0.03290
Br1179     Br  0.77386326  0.10457081  0.55581739    -0.02990
H1180       H  0.68754215  0.08838164  0.52683742     0.09170
H1181       H  0.80809435  0.20775234  0.93324718     0.07190
Br1182     Br  0.71697389  0.16134849  0.89402766    -0.03420
C1183       C  0.85814914  0.28806891  0.49105502    -0.10050
C1184       C  0.87887927  0.25981024  0.98051483     0.06140
C1185       C  0.92454601  0.28708998  0.96081946    -0.03820
C1186       C  0.95455373  0.33722985  0.96718009    -0.08270
C1187       C  0.93776031  0.36153795  0.98996304     0.05260
C1188       C  0.88770946  0.33653055  0.50006234    -0.03290
Br1189     Br  0.85796233  0.36605800  0.52777729    -0.02990
H1190       H  0.81933957  0.27131016  0.49627534     0.09170
H1191       H  0.98942626  0.35779161  0.95240006     0.07190
Br1192     Br  0.94128681  0.26281637  0.91789718    -0.03420
C1193       C  0.85406464  0.13480238  0.96317241    -0.10050
C1194       C  0.88196746  0.17910338  0.98104973     0.06140
C1195       C  0.93229234  0.19365494  0.48749361    -0.03820
C1196       C  0.94925517  0.16104924  0.48132299    -0.08270
C1197       C  0.91827696  0.11486475  0.96851973     0.05260
C1198       C  0.87128406  0.10286719  0.95762105    -0.03290
Br1199     Br  0.82699381  0.04135694  0.93721338    -0.02990
H1200       H  0.81707674  0.12219584  0.95517797     0.09170
H1201       H  0.98636806  0.17109652  0.48793899     0.07190
Br1202     Br  0.97870801  0.25140192  0.51206557    -0.03420
C1203       C  0.84305822  0.23275143  0.56086823    -0.10050
C1204       C  0.86203627  0.20787177  0.54085180     0.06140
C1205       C  0.88504221  0.18676286  0.56324338    -0.03820
C1206       C  0.89450564  0.19835552  0.60022346    -0.08270
C1207       C  0.86615789  0.21317100  0.62013292     0.05260
C1208       C  0.84905409  0.24004054  0.59889119    -0.03290
Br1209     Br  0.81870959  0.27439027  0.61916288    -0.02990
H1210       H  0.81737146  0.24146403  0.54876024     0.09170
H1211       H  0.91781862  0.18742137  0.61446378     0.07190
Br1212     Br  0.88713215  0.12751512  0.55585245    -0.03420
C1213       C  0.85571896  0.70532705  0.99731404    -0.03380
C1214       C  0.85469717  0.70035539  0.16316695    -0.03380
C1215       C  0.67372266  0.83803055  0.41939193    -0.03380
C1216       C  0.66091933  0.83292845  0.25414017    -0.03380
O1217       O  0.88876058  0.97384724  0.48716523    -0.81030
O1218       O  0.56464371  0.47325445  0.41501896    -0.81060
O1219       O  0.98385682  0.55200508  0.37555679    -0.81060
O1220       O  0.00151967  0.94068222  0.51030489    -0.81010
O1221       O  0.51608892  0.50632014  0.37064531    -0.81130
O1222       O  0.94655932  0.93586446  0.47046611    -0.81050
O1223       O  0.58981460  0.98351293  0.47330735    -0.81030
O1224       O  0.91196801  0.47731529  0.42853070    -0.81070
C1225       C  0.87732433  0.96086781  0.45430988     1.08660
C1226       C  0.58500442  0.96400435  0.44214790     1.08540
C1227       C  0.49642803  0.52817087  0.35478514     1.08680
C1228       C  0.96455048  0.91554837  0.49017578     1.08560
O1229       O  0.95507211  0.98845712  0.03573874    -0.81030
O1230       O  0.58092957  0.60726750  0.39825858    -0.81110
O1231       O  0.93414870  0.56949325  0.42721216    -0.81050
O1232       O  0.61307644  0.57903595  0.49231515    -0.81030
O1233       O  0.63214488  0.57079859  0.43434851    -0.81080
O1234       O  0.95672319  0.56644272  0.48516048    -0.81040
O1235       O  0.53063523  0.04128732  0.03765407    -0.81000
O1236       O  0.52968397  0.60879914  0.43952664    -0.81070
Co1237     Co  0.95577373  0.00058941  0.47830328     1.51530
Co1238     Co  0.56892466  0.53788979  0.40764286     1.51690
Co1239     Co  0.97574097  0.54357874  0.43331186     1.51570
Co1240     Co  0.55579156  0.01225817  0.50055406     1.51470
O1241       O  0.52282086  0.52296819  0.45433971    -1.42970
C1242       C  0.99082288  0.01493950  0.05550427     1.08580
C1243       C  0.56789548  0.63052463  0.41973282     1.08670
C1244       C  0.93667310  0.58201003  0.46057760     1.08610
C1245       C  0.64441189  0.59074281  0.46556297     1.08590
O1246       O  0.90853016  0.46261145  0.23958644    -0.81030
O1247       O  0.57185292  0.96805591  0.18644406    -0.81060
O1248       O  0.94396998  0.93122504  0.19210750    -0.81060
O1249       O  0.52718619  0.52686438  0.29251515    -0.81010
O1250       O  0.99185503  0.93708329  0.14608227    -0.81130
O1251       O  0.96004024  0.53202619  0.29438228    -0.81050
O1252       O  0.54284805  0.46266561  0.24391239    -0.81030
O1253       O  0.88175433  0.96520915  0.18193142    -0.81070
C1254       C  0.87265360  0.95198662  0.21668177     1.08660
C1255       C  0.56266724  0.94885898  0.21959612     1.08540
C1256       C  0.95937377  0.91094107  0.17095437     1.08680
C1257       C  0.49334997  0.52867345  0.31196382     1.08560
O1258       O  0.52139718  0.59934655  0.24086132    -0.81030
O1259       O  0.52990432  0.03770975  0.11421925    -0.81110
O1260       O  0.95382495  0.55823682  0.16474345    -0.81050
O1261       O  0.62403206  0.54775633  0.21349946    -0.81030
O1262       O  0.60974423  0.56768583  0.15796975    -0.81080
O1263       O  0.93776150  0.55974487  0.22383548    -0.81040
O1264       O  0.59246722  0.60581086  0.23679974    -0.81000
O1265       O  0.95222867  0.98704502  0.12017330    -0.81070
Co1266     Co  0.97515892  0.52847475  0.24128026     1.51530
Co1267     Co  0.54827049  0.00473042  0.15414051     1.51690
Co1268     Co  0.95056088  0.99515272  0.17824838     1.51570
Co1269     Co  0.56356620  0.53339141  0.24120838     1.51470
O1270       O  0.51667984  0.52581960  0.19587357    -1.42970
C1271       C  0.56653387  0.62562080  0.23551145     1.08580
C1272       C  0.98975598  0.01365877  0.09854899     1.08670
C1273       C  0.93834004  0.57413305  0.19029324     1.08610
C1274       C  0.63970863  0.57213740  0.18291845     1.08590
C1275       C  0.55951818  0.69926933  0.24400939    -0.10050
C1276       C  0.58681879  0.67945114  0.22953996     0.06140
C1277       C  0.63189295  0.71215532  0.21137858    -0.03820
C1278       C  0.65179569  0.76262109  0.21393286    -0.08270
C1279       C  0.63030644  0.78153059  0.23796051     0.05260
C1280       C  0.58040847  0.74925238  0.24886564    -0.03290
Br1281     Br  0.54094097  0.76487946  0.27988539    -0.02990
H1282       H  0.52449928  0.67530868  0.25764943     0.09170
H1283       H  0.68658416  0.78631902  0.19985776     0.07190
Br1284     Br  0.66913425  0.69171299  0.18338290    -0.03420
C1285       C  0.61015966  0.87484314  0.27331311    -0.10050
C1286       C  0.63291479  0.86190076  0.24463828     0.06140
C1287       C  0.62744816  0.87519693  0.20726196    -0.03820
C1288       C  0.60409714  0.90254411  0.20023503    -0.08270
C1289       C  0.58223426  0.91531432  0.22919256     0.05260
C1290       C  0.58491579  0.89999696  0.26614485    -0.03290
Br1291     Br  0.55569281  0.91208109  0.30894286    -0.02990
H1292       H  0.60892991  0.86323503  0.30222754     0.09170
H1293       H  0.60418920  0.41483821  0.17147106     0.07190
Br1294     Br  0.65311460  0.85975928  0.16410448    -0.03420
C1295       C  0.80053931  0.87411784  0.24065490    -0.10050
C1296       C  0.82059051  0.92285044  0.22909466     0.06140
C1297       C  0.78918779  0.94214788  0.22569324    -0.03820
C1298       C  0.73858661  0.91196428  0.22930839    -0.08270
C1299       C  0.71659264  0.86179849  0.24038108     0.05260
C1300       C  0.75020781  0.84436509  0.24769733    -0.03290
Br1301     Br  0.73414504  0.78273716  0.27100571    -0.02990
H1302       H  0.82445792  0.85937214  0.24556811     0.09170
H1303       H  0.71734243  0.93002633  0.22737576     0.07190
Br1304     Br  0.81344522  0.51071699  0.22470142    -0.03420
C1305       C  0.59554258  0.75843897  0.43699912    -0.10050
C1306       C  0.64680737  0.78494222  0.43897667     0.06140
C1307       C  0.66948233  0.75515246  0.44318727    -0.03820
C1308       C  0.64333984  0.70532995  0.43624585    -0.08270
C1309       C  0.59592606  0.68372100  0.42368839     0.05260
C1310       C  0.57163747  0.71071730  0.42478672    -0.03290
Br1311     Br  0.50974947  0.68759029  0.40194561    -0.02990
H1312       H  0.57445090  0.77626459  0.43989999     0.09170
H1313       H  0.65999594  0.68318943  0.44106924     0.07190
Br1314     Br  0.73324966  0.77475412  0.46174750    -0.03420
C1315       C  0.66905589  0.91065835  0.44968158    -0.10050
C1316       C  0.64679342  0.86841308  0.42817969     0.06140
C1317       C  0.60282102  0.86088100  0.40997671    -0.03820
C1318       C  0.58364105  0.89188554  0.41524780    -0.08270
C1319       C  0.60606520  0.93170979  0.43768419     0.05260
C1320       C  0.64941055  0.94097173  0.45489874    -0.03290
Br1321     Br  0.68801454  0.49822750  0.48253523    -0.02990
H1322       H  0.70454898  0.92505511  0.46055667     0.09170
H1323       H  0.55091284  0.88522569  0.40097996     0.07190
Br1324     Br  0.56649802  0.81367859  0.37351178    -0.03420
C1325       C  0.74091641  0.87696965  0.46658501    -0.10050
C1326       C  0.72847275  0.86316660  0.42958473     0.06140
C1327       C  0.76812239  0.87121864  0.40454771    -0.03820
C1328       C  0.81571410  0.90398660  0.41313016    -0.08270
C1329       C  0.82638941  0.92570677  0.44739551     0.05260
C1330       C  0.78845581  0.91084433  0.47507752    -0.03290
Br1331     Br  0.79606884  0.43754292  0.52387672    -0.02990
H1332       H  0.71243591  0.86509976  0.48819580     0.09170
H1333       H  0.84494054  0.91108332  0.39328505     0.07190
Br1334     Br  0.76565588  0.83259403  0.36323985    -0.03420
C1335       C  0.69058666  0.87501032  0.31421649    -0.10050
C1336       C  0.66548735  0.82954638  0.29723354     0.06140
C1337       C  0.64923741  0.78679564  0.32136508    -0.03820
C1338       C  0.65343578  0.79139344  0.35951630    -0.08270
C1339       C  0.67295858  0.83613030  0.37650130     0.05260
C1340       C  0.69336490  0.87895484  0.35265211    -0.03290
Br1341     Br  0.72756554  0.94472343  0.36905947    -0.02990
H1342       H  0.70557330  0.90870603  0.29728595     0.09170
H1343       H  0.64330630  0.75862945  0.37563398     0.07190
Br1344     Br  0.62690917  0.71958415  0.31099436    -0.03420
C1345       C  0.72351763  0.61247005  0.20821301    -0.10050
C1346       C  0.69310646  0.60466344  0.17755490     0.06140
C1347       C  0.71469932  0.62821502  0.14304173    -0.03820
C1348       C  0.76495556  0.65680282  0.13955478    -0.08270
C1349       C  0.79717127  0.66923314  0.17023220     0.05240
C1350       C  0.77420983  0.64366215  0.20512462    -0.03290
Br1351     Br  0.80737903  0.64613481  0.25050688    -0.02990
H1352       H  0.70774295  0.59420635  0.23527246     0.09170
H1353       H  0.77685916  0.66668160  0.11102923     0.07190
Br1354     Br  0.67855946  0.62467858  0.09886008    -0.03420
C1355       C  0.89260226  0.82997362  0.19582973    -0.10050
C1356       C  0.93706222  0.85685625  0.17527489     0.06140
C1357       C  0.95840474  0.83109743  0.16055404    -0.03820
C1358       C  0.93415845  0.78034087  0.16495829    -0.08270
C1359       C  0.88477313  0.75258021  0.17849070     0.05260
C1360       C  0.86610112  0.77881103  0.19723778    -0.03290
Br1361     Br  0.80382831  0.75051901  0.22195981    -0.02990
H1362       H  0.87640539  0.84899379  0.20880749     0.09170
H1363       H  0.95166499  0.76199723  0.15265425     0.07190
Br1364     Br  0.51774304  0.86129762  0.13073291    -0.03420
C1365       C  0.93147898  0.64564579  0.20578856    -0.10050
C1366       C  0.91841675  0.60667248  0.18255748     0.06140
C1367       C  0.87934374  0.59369059  0.15864249    -0.03820
C1368       C  0.85555761  0.62088959  0.15754695    -0.08270
C1369       C  0.87379274  0.66529399  0.17618673     0.05260
C1370       C  0.91018469  0.67509281  0.20310745    -0.03290
Br1371     Br  0.92890706  0.72201123  0.24134451    -0.02990
H1372       H  0.95771774  0.65243122  0.22712296     0.09170
H1373       H  0.82565258  0.61011664  0.13863906     0.07190
Br1374     Br  0.85465635  0.53707780  0.12909243    -0.03420
C1375       C  0.71360269  0.61640942  0.00711124    -0.10050
C1376       C  0.69725838  0.62342652  0.47260413     0.06140
C1377       C  0.73268072  0.65539685  0.44523175    -0.03820
C1378       C  0.78214204  0.68295169  0.45462535    -0.08270
C1379       C  0.79910201  0.67640569  0.48992684     0.05260
C1380       C  0.76302539  0.63869986  0.01485556    -0.03290
Br1381     Br  0.77390171  0.60455045  0.05579049    -0.02990
H1382       H  0.68757251  0.58836737  0.02682451     0.09170
H1383       H  0.80807109  0.70772928  0.43324523     0.07190
Br1384     Br  0.71695004  0.66132663  0.39402737    -0.03420
C1385       C  0.85817778  0.78807943  0.99106409    -0.10050
C1386       C  0.87885425  0.75980094  0.48051158     0.06140
C1387       C  0.92452449  0.78708140  0.46082129    -0.03820
C1388       C  0.95453049  0.83722084  0.46718371    -0.08270
C1389       C  0.93773173  0.86152810  0.48996229     0.05260
C1390       C  0.88774042  0.83654096  0.00006994    -0.03290
Br1391     Br  0.85799871  0.86607114  0.02778811    -0.02990
H1392       H  0.81936853  0.77132428  0.99628280     0.09170
H1393       H  0.98940589  0.85778309  0.45240778     0.07190
Br1394     Br  0.94127083  0.76281078  0.41790002    -0.03420
C1395       C  0.85403896  0.63479441  0.46317156    -0.10050
C1396       C  0.88194221  0.67909499  0.48104925     0.06140
C1397       C  0.93231836  0.69366551  0.98749181    -0.03820
C1398       C  0.94928203  0.66106029  0.98132092    -0.08270
C1399       C  0.91825092  0.61485561  0.46851863     0.05260
C1400       C  0.87125864  0.60285948  0.45761871    -0.03290
Br1401     Br  0.82696890  0.54135056  0.43720904    -0.02990
H1402       H  0.81705064  0.62218787  0.45517842     0.09170
H1403       H  0.98639569  0.67110894  0.98793540     0.07190
Br1404     Br  0.97873351  0.75141387  0.01206240    -0.03420
C1405       C  0.84305027  0.73273611  0.06086678    -0.10050
C1406       C  0.86205204  0.70787591  0.04085221     0.06140
C1407       C  0.88506956  0.68678182  0.06324650    -0.03820
C1408       C  0.89452275  0.69837400  0.10022747    -0.08270
C1409       C  0.86615937  0.71317334  0.12013399     0.05260
C1410       C  0.84903642  0.74002413  0.09889031    -0.03290
Br1411     Br  0.81866492  0.77434966  0.11915885    -0.02990
H1412       H  0.81735447  0.74143327  0.04875478     0.09170
H1413       H  0.91784121  0.68744976  0.11447144     0.07190
Br1414     Br  0.88718773  0.62754797  0.05586051    -0.03420
C1415       C  0.85569513  0.70531955  0.49731463    -0.03380
C1416       C  0.85469510  0.70035433  0.66316643    -0.03380
C1417       C  0.67374689  0.83804012  0.91938978    -0.03380
C1418       C  0.66091654  0.83292789  0.75413978    -0.03380
O1419       O  0.88878576  0.97385390  0.98716398    -0.81030
O1420       O  0.56466856  0.47326448  0.91501781    -0.81060
O1421       O  0.98388011  0.55201505  0.87555735    -0.81060
O1422       O  0.00154676  0.94069278  0.01030438    -0.81010
O1423       O  0.51611123  0.50632938  0.87064420    -0.81130
O1424       O  0.94658682  0.93587320  0.97046421    -0.81050
O1425       O  0.58984115  0.98352447  0.97330586    -0.81030
O1426       O  0.91199417  0.47732472  0.92852957    -0.81070
C1427       C  0.87735008  0.96087575  0.95430837     1.08660
C1428       C  0.58503014  0.96401511  0.94214665     1.08540
C1429       C  0.49644756  0.52817842  0.85478532     1.08680
C1430       C  0.96457858  0.91555815  0.99017465     1.08560
O1431       O  0.95504827  0.98844982  0.53574083    -0.81030
O1432       O  0.58095305  0.60727719  0.89825755    -0.81110
O1433       O  0.93417410  0.56950288  0.92721265    -0.81050
O1434       O  0.61310272  0.57904669  0.99231366    -0.81030
O1435       O  0.63216920  0.57080891  0.93434614    -0.81080
O1436       O  0.95674803  0.56645047  0.98516074    -0.81040
O1437       O  0.53061118  0.04127955  0.53765268    -0.81000
O1438       O  0.52970938  0.60880876  0.93952749    -0.81070
Co1439     Co  0.95579912  0.00059751  0.97830191     1.51530
Co1440     Co  0.56894849  0.53789951  0.90764139     1.51690
Co1441     Co  0.97576634  0.54358848  0.93331207     1.51570
Co1442     Co  0.55581762  0.01226865  0.00055346     1.51470
O1443       O  0.52284641  0.52297812  0.95433912    -1.42970
C1444       C  0.99080106  0.01493179  0.55550497     1.08580
C1445       C  0.56792043  0.63053427  0.91973317     1.08670
C1446       C  0.93669878  0.58201909  0.96057822     1.08610
C1447       C  0.64443727  0.59075286  0.96556064     1.08590
O1448       O  0.90852909  0.46261136  0.73959085    -0.81030
O1449       O  0.57184606  0.96804983  0.68643897    -0.81060
O1450       O  0.94396540  0.93122087  0.69211170    -0.81060
O1451       O  0.52719555  0.52686610  0.79251334    -0.81010
O1452       O  0.99184426  0.93707784  0.64608236    -0.81130
O1453       O  0.96004942  0.53202734  0.79438553    -0.81050
O1454       O  0.54284507  0.46266300  0.74390802    -0.81030
O1455       O  0.88174923  0.96520494  0.68193661    -0.81070
C1456       C  0.87265099  0.95198511  0.71668735     1.08660
C1457       C  0.56266223  0.94885458  0.71959159     1.08540
C1458       C  0.95936807  0.91093653  0.67095785     1.08680
C1459       C  0.49336213  0.52867661  0.81196445     1.08560
O1460       O  0.52139928  0.59934556  0.74086148    -0.81030
O1461       O  0.52989147  0.03770182  0.61421673    -0.81110
O1462       O  0.95381681  0.55823110  0.66474607    -0.81050
O1463       O  0.62402837  0.54775058  0.71349131    -0.81030
O1464       O  0.60973882  0.56767878  0.65796174    -0.81080
O1465       O  0.93776175  0.55974505  0.72383910    -0.81040
O1466       O  0.59246863  0.60580908  0.73679468    -0.81000
O1467       O  0.95221583  0.98703784  0.62017659    -0.81070
Co1468     Co  0.97515986  0.52847400  0.74128136     1.51530
Co1469     Co  0.54826189  0.00472427  0.65413680     1.51690
Co1470     Co  0.95055476  0.99514815  0.67825153     1.51570
Co1471     Co  0.56356597  0.53338922  0.74120326     1.51470
O1472       O  0.51667608  0.52581715  0.69587155    -1.42970
C1473       C  0.56653576  0.62561974  0.73551021     1.08580
C1474       C  0.98974036  0.01365103  0.59854968     1.08670
C1475       C  0.93833496  0.57412945  0.69029643     1.08610
C1476       C  0.63970407  0.57213178  0.68291032     1.08590
C1477       C  0.55951738  0.69926765  0.74400748    -0.10050
C1478       C  0.58682041  0.67945050  0.72954032     0.06140
C1479       C  0.63189660  0.71215630  0.71138261    -0.03820
C1480       C  0.65179502  0.76262160  0.71393355    -0.08270
C1481       C  0.63030430  0.78152992  0.73796038     0.05260
C1482       C  0.58040635  0.74925064  0.74886462    -0.03290
Br1483     Br  0.54093793  0.76487671  0.77988427    -0.02990
H1484       H  0.52449735  0.67530609  0.75764590     0.09170
H1485       H  0.68658377  0.78632025  0.69985907     0.07190
Br1486     Br  0.66915391  0.69171884  0.68340417    -0.03420
C1487       C  0.61015573  0.87484144  0.77331064    -0.10050
C1488       C  0.63291187  0.86189943  0.74463656     0.06140
C1489       C  0.62744560  0.87519464  0.70725984    -0.03820
C1490       C  0.60409291  0.90254000  0.70023179    -0.08270
C1491       C  0.58222956  0.91531048  0.72918876     0.05260
C1492       C  0.58491113  0.89999420  0.76614145    -0.03290
Br1493     Br  0.55568686  0.91207786  0.80893892    -0.02990
H1494       H  0.60892638  0.86323421  0.80222522     0.09170
H1495       H  0.60418419  0.41483263  0.67146748     0.07190
Br1496     Br  0.65311443  0.85975783  0.66410335    -0.03420
C1497       C  0.80053651  0.87411617  0.74065827    -0.10050
C1498       C  0.82058857  0.92284976  0.72910132     0.06140
C1499       C  0.78918626  0.94214757  0.72569925    -0.03820
C1500       C  0.73858484  0.91196370  0.72931030    -0.08270
C1501       C  0.71659012  0.86179740  0.74038135     0.05260
C1502       C  0.75020471  0.84436318  0.74769831    -0.03290
Br1503     Br  0.73414105  0.78273299  0.77100333    -0.02990
H1504       H  0.82445456  0.85936961  0.74557040     0.09170
H1505       H  0.71734061  0.93002567  0.72737672     0.07190
Br1506     Br  0.81344399  0.51071658  0.72471235    -0.03420
C1507       C  0.59556844  0.75844874  0.93699881    -0.10050
C1508       C  0.64683338  0.78495230  0.93897533     0.06140
C1509       C  0.66950866  0.75516273  0.94318612    -0.03820
C1510       C  0.64336467  0.70533931  0.93624772    -0.08270
C1511       C  0.59595142  0.68373057  0.92368911     0.05260
C1512       C  0.57166335  0.71072724  0.92478623    -0.03290
Br1513     Br  0.50977581  0.68760015  0.90194429    -0.02990
H1514       H  0.57447665  0.77627416  0.93989993     0.09170
H1515       H  0.66001972  0.68319832  0.94107296     0.07190
Br1516     Br  0.73328132  0.77476703  0.96173623    -0.03420
C1517       C  0.66907882  0.91066545  0.94968225    -0.10050
C1518       C  0.64681678  0.86842143  0.92817914     0.06140
C1519       C  0.60284438  0.86089003  0.90997626    -0.03820
C1520       C  0.58366588  0.89189591  0.91524665    -0.08270
C1521       C  0.60609028  0.93171979  0.93768330     0.05260
C1522       C  0.64943428  0.94097954  0.95489923    -0.03290
Br1523     Br  0.68803769  0.49823264  0.98253816    -0.02990
H1524       H  0.70457062  0.92506011  0.96055936     0.09170
H1525       H  0.55093830  0.88523708  0.90097834     0.07190
Br1526     Br  0.56651841  0.81368606  0.87351300    -0.03420
C1527       C  0.74094204  0.87697755  0.96658125    -0.10050
C1528       C  0.72849793  0.86317842  0.92958017     0.06140
C1529       C  0.76814773  0.87123575  0.90454094    -0.03820
C1530       C  0.81573955  0.90400167  0.91312500    -0.08270
C1531       C  0.82641516  0.92571569  0.94739285     0.05260
C1532       C  0.78848150  0.91085013  0.97507513    -0.03290
Br1533     Br  0.79609426  0.43754193  0.02387702    -0.02990
H1534       H  0.71246174  0.86510476  0.98819257     0.09170
H1535       H  0.84496601  0.91110216  0.89327862     0.07190
Br1536     Br  0.76568284  0.83262221  0.86322540    -0.03420
C1537       C  0.69058568  0.87501348  0.81421431    -0.10050
C1538       C  0.66548586  0.82954803  0.79723317     0.06140
C1539       C  0.64924359  0.78679902  0.82136543    -0.03820
C1540       C  0.65345653  0.79140005  0.85951573    -0.08270
C1541       C  0.67297851  0.83613763  0.87649953     0.05260
C1542       C  0.69337566  0.87896065  0.85264929    -0.03290
Br1543     Br  0.72757934  0.94473045  0.86905424    -0.02990
H1544       H  0.70556610  0.90870822  0.79728320     0.09170
H1545       H  0.64333750  0.75863840  0.87563344     0.07190
Br1546     Br  0.62690400  0.71958514  0.81099615    -0.03420
C1547       C  0.72351404  0.61244955  0.70820288    -0.10050
C1548       C  0.69310201  0.60466033  0.67754795     0.06140
C1549       C  0.71469338  0.62823921  0.64304181    -0.03820
C1550       C  0.76494919  0.65683467  0.63955734    -0.08270
C1551       C  0.79716782  0.66923804  0.67023162     0.05240
C1552       C  0.77420560  0.64364639  0.70511828    -0.03290
Br1553     Br  0.80737106  0.64609628  0.75049839    -0.02990
H1554       H  0.70774027  0.59416843  0.73525777     0.09170
H1555       H  0.77684741  0.66674230  0.61103297     0.07190
Br1556     Br  0.67855115  0.62474003  0.59886896    -0.03420
C1557       C  0.89260780  0.82996783  0.69584374    -0.10050
C1558       C  0.93706137  0.85685237  0.67528078     0.06140
C1559       C  0.95840239  0.83109562  0.66055295    -0.03820
C1560       C  0.93415775  0.78033901  0.66495503    -0.08270
C1561       C  0.88477465  0.75257749  0.67849187     0.05260
C1562       C  0.86610758  0.77880508  0.69724966    -0.03290
Br1563     Br  0.80384494  0.75050580  0.72198892    -0.02990
H1564       H  0.87641487  0.84898628  0.70883011     0.09170
H1565       H  0.95166180  0.76199634  0.65264500     0.07190
Br1566     Br  0.51773606  0.86129866  0.63072580    -0.03420
C1567       C  0.93147435  0.64564302  0.70578970    -0.10050
C1568       C  0.91840989  0.60666762  0.68256070     0.06140
C1569       C  0.87933443  0.59368383  0.65864759    -0.03820
C1570       C  0.85554872  0.62088352  0.65755161    -0.08270
C1571       C  0.87378836  0.66529119  0.67618719     0.05260
C1572       C  0.91018112  0.67509075  0.70310755    -0.03290
Br1573     Br  0.92890047  0.72200662  0.74134656    -0.02990
H1574       H  0.95771415  0.65242946  0.72712404     0.09170
H1575       H  0.82564136  0.61010928  0.63864572     0.07190
Br1576     Br  0.85464452  0.53706879  0.62910011    -0.03420
C1577       C  0.71357450  0.61641430  0.50711942    -0.10050
C1578       C  0.69728423  0.62343407  0.97260101     0.06140
C1579       C  0.73270518  0.65541210  0.94523070    -0.03820
C1580       C  0.78216637  0.68296757  0.95462476    -0.08270
C1581       C  0.79912721  0.67641257  0.98992296     0.05260
C1582       C  0.76299686  0.63870563  0.51486602    -0.03290
Br1583     Br  0.77386327  0.60457078  0.55581736    -0.02990
H1584       H  0.68754215  0.58838162  0.52683741     0.09170
H1585       H  0.80809434  0.70775238  0.93324719     0.07190
Br1586     Br  0.71697388  0.66134853  0.89402767    -0.03420
C1587       C  0.85814914  0.78806891  0.49105503    -0.10050
C1588       C  0.87887927  0.75981024  0.98051484     0.06140
C1589       C  0.92454600  0.78708998  0.96081945    -0.03820
C1590       C  0.95455372  0.83722985  0.96718008    -0.08270
C1591       C  0.93776031  0.86153795  0.98996304     0.05260
C1592       C  0.88770947  0.83653055  0.50006235    -0.03290
Br1593     Br  0.85796235  0.86605801  0.52777730    -0.02990
H1594       H  0.81933958  0.77131017  0.49627535     0.09170
H1595       H  0.98942624  0.85779162  0.95240004     0.07190
Br1596     Br  0.94128679  0.76281637  0.91789716    -0.03420
C1597       C  0.85406465  0.63480238  0.96317240    -0.10050
C1598       C  0.88196747  0.67910338  0.98104972     0.06140
C1599       C  0.93229234  0.69365495  0.48749361    -0.03820
C1600       C  0.94925517  0.66104925  0.48132299    -0.08270
C1601       C  0.91827697  0.61486476  0.96851972     0.05260
C1602       C  0.87128407  0.60286719  0.95762105    -0.03290
Br1603     Br  0.82699381  0.54135694  0.93721338    -0.02990
H1604       H  0.81707674  0.62219584  0.95517796     0.09170
H1605       H  0.98636806  0.67109653  0.48793899     0.07190
Br1606     Br  0.97870801  0.75140192  0.51206556    -0.03420
C1607       C  0.84305819  0.73275141  0.56086823    -0.10050
C1608       C  0.86203627  0.70787177  0.54085180     0.06140
C1609       C  0.88504221  0.68676287  0.56324338    -0.03820
C1610       C  0.89450564  0.69835553  0.60022346    -0.08270
C1611       C  0.86615788  0.71317099  0.62013292     0.05260
C1612       C  0.84905407  0.74004052  0.59889119    -0.03290
Br1613     Br  0.81870954  0.77439023  0.61916288    -0.02990
H1614       H  0.81737143  0.74146400  0.54876024     0.09170
H1615       H  0.91781862  0.68742139  0.61446378     0.07190
Br1616     Br  0.88713217  0.62751514  0.55585245    -0.03420
loop_ 
_geom_bond_atom_site_label_1 
_geom_bond_atom_site_label_2 
_geom_bond_distance 
_geom_bond_site_symmetry_2 
_ccdc_geom_bond_type 
C1          C194   1.565   1_556  S
C1          C369   1.585       .  S
C1          C376   1.589       .  S
C1          C386   1.559       .  S
C2          C137   1.593       .  S
C2          C147   1.567       .  S
C2          C157   1.562       .  S
C2          C197   1.562       .  S
C3           C94   1.585       .  S
C3          C104   1.607       .  S
C3          C114   1.559       .  S
C3          C127   1.531       .  S
C4           C67   1.561       .  S
C4           C74   1.590       .  S
C4           C87   1.591       .  S
C4          C124   1.547       .  S
O5           C13   1.251       .  A
O5          Co25   1.870       .  S
O6          C418   1.268       .  A
O6          Co26   1.989   1_565  S
O7          C823   1.270       .  A
O7          Co27   2.061       .  S
O8           C16   1.284       .  A
O8         Co836   2.066       .  S
O9           C15   1.259   1_455  A
O9          Co26   2.002       .  S
O10          C16   1.251       .  A
O10         Co25   1.953       .  S
O11          C14   1.265       .  A
O11         Co28   1.988       .  S
O12         C417   1.302       .  A
O12         Co27   2.081   1_565  S
C13         O416   1.302       .  A
C13         C117   1.464       .  S
C14         O410   1.268       .  A
C14         C107   1.484       .  S
C15         O815   1.270       .  A
C15          C45   1.529       .  S
C16         C177   1.485       .  S
O17          C30   1.263       .  A
O17        Co227   2.064   1_554  S
O18          C31   1.280       .  A
O18         Co26   2.047       .  S
O19          C32   1.258       .  A
O19         Co27   1.874       .  S
O20          C33   1.273       .  A
O20        Co432   1.994       .  S
O21          C33   1.267       .  A
O21         Co26   2.008       .  S
O22          C32   1.302       .  A
O22        Co429   2.094       .  S
O23         C838   1.260   1_455  A
O23        Co230   2.008       .  S
O24          C31   1.246       .  A
O24        Co835   1.941   1_455  S
Co25        O219   2.064       .  S
Co25        O426   2.094       .  S
Co25       O1241   2.040       .  S
Co26         O29   2.081       .  S
Co27        O832   1.941       .  S
Co27        O837   2.037       .  S
Co28        O816   2.066       .  S
Co28        O424   1.994       .  S
Co28        O225   2.008       .  S
Co28        O433   2.060       .  S
O29       Co1237   2.040   1_455  S
O29        Co835   2.037   1_455  S
O29        Co432   2.060       .  S
C30         O831   1.260       .  A
C30          C60   1.532       .  S
C31          C97   1.477       .  S
C32         C187   1.457       .  S
C33         C164   1.496       .  S
O34         C446   1.313       .  A
O34         Co54   2.108   1_565  S
O35          C43   1.269       .  A
O35         Co55   1.999       .  S
O36          C44   1.249       .  A
O36         Co56   1.970       .  S
O37          C45   1.297   1_455  A
O37         Co57   2.099       .  S
O38          C44   1.268       .  A
O38        Co863   2.029       .  S
O39         C853   1.277       .  A
O39         Co54   1.968       .  S
O40         C447   1.276       .  A
O40         Co57   1.994   1_565  S
O41          C42   1.274       .  A
O41         Co56   1.895       .  S
C42         O438   1.313       .  A
C42          C84   1.485       .  S
C43         O444   1.276       .  A
C43          C77   1.502       .  S
C44         C144   1.494       .  S
C45         O847   1.277       .  A
O46          C59   1.253       .  A
O46        Co862   1.978   1_455  S
O47         C868   1.261   1_455  A
O47         Co55   1.986       .  S
O48          C61   1.263       .  A
O48        Co460   1.987   1_545  S
O49          C62   1.254       .  A
O49         Co57   1.977       .  S
O50          C62   1.264       .  A
O50        Co459   1.988       .  S
O51          C61   1.258       .  A
O51         Co54   1.973       .  S
O52          C59   1.256       .  A
O52         Co57   2.001       .  S
O53          C60   1.286       .  A
O53         Co56   2.098       .  S
Co54        O854   1.978       .  S
Co54        O866   2.106       .  S
Co55        O846   2.029   1_455  S
Co55        O454   1.988       .  S
Co55        O462   2.091       .  S
Co56        O452   1.987       .  S
Co56       O1270   1.940       .  S
Co57         O58   2.140       .  S
O58        Co862   2.106   1_455  S
O58        Co459   2.091       .  S
O58       Co1268   1.940   1_445  S
C59          C64   1.498       .  S
C60         O855   1.261       .  A
C61         C154   1.469       .  S
C62         C134   1.484       .  S
C63          C64   1.401       .  A
C63          C68   1.398       .  A
C63          H70   1.080       .  S
C64          C65   1.411       .  A
C65          C66   1.404       .  A
C65         Br72   1.895       .  S
C66          C67   1.410       .  A
C66          H71   1.080       .  S
C67          C68   1.430       .  A
C68         Br69   1.913       .  S
C73          C74   1.429       .  A
C73          C78   1.398       .  A
C73          H80   1.073       .  S
C74          C75   1.418       .  A
C75          C76   1.407       .  A
C75         Br82   1.922       .  S
C76          C77   1.416       .  A
C76         H485   1.081       .  S
C77          C78   1.402       .  A
C78         Br79   1.923       .  S
H81         C480   1.081       .  S
C83          C84   1.388       .  A
C83          C88   1.404       .  A
C83          H90   1.080       .  S
C84          C85   1.405       .  A
C85          C86   1.400       .  A
C85        Br496   1.908       .  S
C86          C87   1.418       .  A
C86          H91   1.078       .  S
C87          C88   1.442       .  A
C88         Br89   1.906       .  S
Br92        C489   1.908   1_545  S
C93          C94   1.412       .  A
C93          C98   1.402       .  A
C93         H100   1.073       .  S
C94          C95   1.445       .  A
C95          C96   1.404       .  A
C95        Br102   1.924       .  S
C96          C97   1.391       .  A
C96         H101   1.076       .  S
C97          C98   1.406       .  A
C98         Br99   1.918       .  S
C103        C104   1.423       .  A
C103        C108   1.395       .  A
C103        H110   1.064       .  S
C104        C105   1.452       .  A
C105        C106   1.404       .  A
C105       Br112   1.927       .  S
C106        C107   1.390       .  A
C106        H111   1.084       .  S
C107        C108   1.404       .  A
C108       Br513   1.926       .  S
Br109       C512   1.926       .  S
C113        C114   1.402       .  A
C113        C118   1.391       .  A
C113        H120   1.084       .  S
C114        C115   1.442       .  A
C115        C116   1.385       .  A
C115       Br122   1.928       .  S
C116        C117   1.385       .  A
C116        H121   1.084       .  S
C117        C118   1.420       .  A
C118       Br523   1.927       .  S
Br119       C522   1.927       .  S
C123        C124   1.418       .  A
C123        C128   1.379       .  A
C123        H130   1.081       .  S
C124        C125   1.430       .  A
C125        C126   1.373       .  A
C125       Br132   1.933       .  S
C126        C127   1.400       .  A
C126        H131   1.062       .  S
C127        C128   1.417       .  A
C128       Br129   1.928       .  S
C133        C134   1.407       .  A
C133        C138   1.405       .  A
C133        H140   1.083       .  S
C134        C135   1.393       .  A
C135        C136   1.386       .  A
C135       Br142   1.926       .  S
C136        C137   1.429       .  A
C136        H141   1.060       .  S
C137        C138   1.431       .  A
C138       Br139   1.917       .  S
C143        C144   1.409       .  A
C143        C148   1.405       .  A
C143        H150   1.079       .  S
C144        C145   1.404       .  A
C145        C146   1.396       .  A
C145       Br960   1.916       .  S
C146        C147   1.427       .  A
C146        H151   1.082       .  S
C147        C148   1.417       .  A
C148       Br149   1.902       .  S
Br152       C953   1.916   1_455  S
C153        C154   1.399       .  A
C153        C158   1.396       .  A
C153        H160   1.076       .  S
C154        C155   1.401       .  A
C155        C156   1.396       .  A
C155       Br162   1.924       .  S
C156        C157   1.423       .  A
C156        H161   1.083       .  S
C157        C158   1.424       .  A
C158       Br159   1.927       .  S
C163        C168   1.395       .  A
C163        C366   1.389   1_554  A
C163        H170   1.084       .  S
C164        C165   1.417       .  A
C164        C365   1.389       .  A
C165        C166   1.413       .  A
C165       Br172   1.920       .  S
C166        C167   1.418       .  A
C166        H171   1.082       .  S
C167        C203   1.585       .  S
C167        C370   1.437       .  A
C168        C369   1.437   1_554  A
C168       Br169   1.914       .  S
C173        C178   1.397   1_556  A
C173        C376   1.406       .  A
C173        H180   1.079       .  S
C174        C203   1.589       .  S
C174        C175   1.422       .  A
C174        C375   1.406       .  A
C175        C176   1.417       .  A
C175       Br182   1.921       .  S
C176        C177   1.408       .  A
C176        H181   1.081       .  S
C177        C380   1.409       .  A
C178        C379   1.409   1_554  A
C178       Br179   1.915       .  S
C183        C184   1.415       .  A
C183        C188   1.385       .  A
C183        H190   1.077       .  S
C184        C203   1.559       .  S
C184        C387   1.445       .  A
C185        C186   1.403       .  A
C185        C386   1.445       .  A
C185       Br192   1.936   1_556  S
C186        C389   1.394       .  A
C186        H191   1.084       .  S
C187        C188   1.402       .  A
C187        C388   1.394       .  A
C188       Br189   1.924       .  S
C193        C194   1.413       .  A
C193        C198   1.381       .  A
C193        H200   1.068       .  S
C194        C195   1.436       .  A
C195        C196   1.376       .  A
C195       Br202   1.937       .  S
C196        C197   1.400       .  A
C196        H201   1.080       .  S
C197        C198   1.414       .  A
C198       Br199   1.927       .  S
C203        C396   1.565       .  S
C204        C339   1.593       .  S
C204        C349   1.567       .  S
C204        C359   1.562       .  S
C204        C399   1.562       .  S
C205        C296   1.585       .  S
C205        C306   1.607       .  S
C205        C316   1.559       .  S
C205        C329   1.531       .  S
C206        C269   1.561       .  S
C206        C276   1.590       .  S
C206        C289   1.591       .  S
C206        C326   1.547       .  S
O207        C215   1.251       .  A
O207       Co227   1.870       .  S
O208        C620   1.268       .  A
O208       Co228   1.989   1_565  S
O209       C1025   1.270       .  A
O209       Co229   2.061       .  S
O210        C218   1.284   1_554  A
O210      Co1038   2.066       .  S
O211        C217   1.259   1_455  A
O211       Co228   2.003       .  S
O212        C218   1.251       .  A
O212       Co227   1.953       .  S
O213        C216   1.265       .  A
O213       Co230   1.988   1_556  S
O214        C619   1.302       .  A
O214       Co229   2.081   1_565  S
C215        O618   1.302       .  A
C215        C319   1.464       .  S
C216        O612   1.268       .  A
C216        C309   1.484       .  S
C217       O1017   1.270       .  A
C217        C247   1.529       .  S
C218        C379   1.485       .  S
O219        C232   1.263       .  A
O220        C233   1.280       .  A
O220       Co228   2.047       .  S
O221        C234   1.258       .  A
O221       Co229   1.874       .  S
O222        C235   1.273       .  A
O222       Co634   1.995   1_556  S
O223        C235   1.267       .  A
O223       Co228   2.008       .  S
O224        C234   1.302       .  A
O224       Co631   2.094       .  S
O225       C1040   1.260   1_455  A
O226        C233   1.246       .  A
O226      Co1037   1.941   1_455  S
Co227       O628   2.094       .  S
Co227      O1443   2.040       .  S
Co228       O231   2.081       .  S
Co229      O1034   1.941       .  S
Co229      O1039   2.037       .  S
Co230      O1018   2.066       .  S
Co230       O626   1.995   1_554  S
Co230       O635   2.060   1_554  S
O231      Co1439   2.040   1_455  S
O231      Co1037   2.037   1_455  S
O231       Co634   2.060   1_556  S
C232       O1033   1.260       .  A
C232        C262   1.532       .  S
C233        C299   1.477       .  S
C234        C389   1.457       .  S
C235        C366   1.496       .  S
O236        C648   1.313       .  A
O236       Co256   2.108   1_565  S
O237        C245   1.269       .  A
O237       Co257   1.999       .  S
O238        C246   1.249       .  A
O238       Co258   1.970       .  S
O239        C247   1.297   1_455  A
O239       Co259   2.099       .  S
O240        C246   1.268       .  A
O240      Co1065   2.029       .  S
O241       C1055   1.277       .  A
O241       Co256   1.968       .  S
O242        C649   1.276       .  A
O242       Co259   1.994   1_565  S
O243        C244   1.274       .  A
O243       Co258   1.895       .  S
C244        O640   1.313       .  A
C244        C286   1.485       .  S
C245        O646   1.276       .  A
C245        C279   1.502       .  S
C246        C346   1.494       .  S
C247       O1049   1.277       .  A
O248        C261   1.253       .  A
O248      Co1064   1.978   1_455  S
O249       C1070   1.261   1_455  A
O249       Co257   1.986       .  S
O250        C263   1.263       .  A
O250       Co662   1.987   1_545  S
O251        C264   1.254       .  A
O251       Co259   1.977       .  S
O252        C264   1.264       .  A
O252       Co661   1.988       .  S
O253        C263   1.258       .  A
O253       Co256   1.973       .  S
O254        C261   1.256       .  A
O254       Co259   2.001       .  S
O255        C262   1.286       .  A
O255       Co258   2.098       .  S
Co256      O1056   1.978       .  S
Co256      O1068   2.106       .  S
Co257      O1048   2.029   1_455  S
Co257       O656   1.988       .  S
Co257       O664   2.091       .  S
Co258       O654   1.987       .  S
Co258      O1472   1.940       .  S
Co259       O260   2.140       .  S
O260      Co1064   2.106   1_455  S
O260       Co661   2.091       .  S
O260      Co1470   1.940   1_445  S
C261        C266   1.498       .  S
C262       O1057   1.261       .  A
C263        C356   1.469       .  S
C264        C336   1.484       .  S
C265        C266   1.401       .  A
C265        C270   1.399       .  A
C265        H272   1.080       .  S
C266        C267   1.411       .  A
C267        C268   1.404       .  A
C267       Br274   1.895       .  S
C268        C269   1.410       .  A
C268        H273   1.080       .  S
C269        C270   1.430       .  A
C270       Br271   1.913       .  S
C275        C276   1.429       .  A
C275        C280   1.398       .  A
C275        H282   1.073       .  S
C276        C277   1.418       .  A
C277        C278   1.407       .  A
C277       Br284   1.922       .  S
C278        C279   1.416       .  A
C278        H687   1.081       .  S
C279        C280   1.402       .  A
C280       Br281   1.923       .  S
H283        C682   1.081       .  S
C285        C286   1.388       .  A
C285        C290   1.404       .  A
C285        H292   1.080       .  S
C286        C287   1.405       .  A
C287        C288   1.400       .  A
C287       Br698   1.908       .  S
C288        C289   1.418       .  A
C288        H293   1.078       .  S
C289        C290   1.442       .  A
C290       Br291   1.906       .  S
Br294       C691   1.908   1_545  S
C295        C296   1.412       .  A
C295        C300   1.402       .  A
C295        H302   1.073       .  S
C296        C297   1.445       .  A
C297        C298   1.404       .  A
C297       Br304   1.924       .  S
C298        C299   1.391       .  A
C298        H303   1.076       .  S
C299        C300   1.406       .  A
C300       Br301   1.918       .  S
C305        C306   1.423       .  A
C305        C310   1.395       .  A
C305        H312   1.064       .  S
C306        C307   1.452       .  A
C307        C308   1.404       .  A
C307       Br314   1.927       .  S
C308        C309   1.390       .  A
C308        H313   1.084       .  S
C309        C310   1.404       .  A
C310       Br715   1.926       .  S
Br311       C714   1.926       .  S
C315        C316   1.402       .  A
C315        C320   1.391       .  A
C315        H322   1.084       .  S
C316        C317   1.442       .  A
C317        C318   1.385       .  A
C317       Br324   1.928       .  S
C318        C319   1.385       .  A
C318        H323   1.084       .  S
C319        C320   1.420       .  A
C320       Br725   1.927   1_556  S
Br321       C724   1.927   1_554  S
C325        C326   1.418       .  A
C325        C330   1.379       .  A
C325        H332   1.081       .  S
C326        C327   1.430       .  A
C327        C328   1.373       .  A
C327       Br334   1.933       .  S
C328        C329   1.400       .  A
C328        H333   1.062       .  S
C329        C330   1.417       .  A
C330       Br331   1.928       .  S
C335        C336   1.407       .  A
C335        C340   1.405       .  A
C335        H342   1.083       .  S
C336        C337   1.393       .  A
C337        C338   1.386       .  A
C337       Br344   1.926       .  S
C338        C339   1.429       .  A
C338        H343   1.060       .  S
C339        C340   1.431       .  A
C340       Br341   1.917       .  S
C345        C346   1.409       .  A
C345        C350   1.405       .  A
C345        H352   1.079       .  S
C346        C347   1.404       .  A
C347        C348   1.396       .  A
C347      Br1162   1.916       .  S
C348        C349   1.427       .  A
C348        H353   1.082       .  S
C349        C350   1.417       .  A
C350       Br351   1.902       .  S
Br354      C1155   1.916   1_455  S
C355        C356   1.399       .  A
C355        C360   1.396       .  A
C355        H362   1.076       .  S
C356        C357   1.401       .  A
C357        C358   1.396       .  A
C357       Br364   1.924       .  S
C358        C359   1.423       .  A
C358        H363   1.083       .  S
C359        C360   1.424       .  A
C360       Br361   1.927       .  S
C365        C370   1.395       .  A
C365        H372   1.084       .  S
C366        C367   1.417       .  A
C367        C368   1.413       .  A
C367       Br374   1.920       .  S
C368        C369   1.418       .  A
C368        H373   1.082       .  S
C370       Br371   1.914       .  S
C375        C380   1.397       .  A
C375        H382   1.079       .  S
C376        C377   1.422       .  A
C377        C378   1.417       .  A
C377       Br384   1.921       .  S
C378        C379   1.408       .  A
C378        H383   1.081       .  S
C380       Br381   1.915       .  S
C385        C386   1.415       .  A
C385        C390   1.385       .  A
C385        H392   1.077       .  S
C387        C388   1.403       .  A
C387       Br394   1.936       .  S
C388        H393   1.084       .  S
C389        C390   1.402       .  A
C390       Br391   1.924       .  S
C395        C396   1.413       .  A
C395        C400   1.381       .  A
C395        H402   1.068       .  S
C396        C397   1.436       .  A
C397        C398   1.376       .  A
C397       Br404   1.937       .  S
C398        C399   1.400       .  A
C398        H403   1.080       .  S
C399        C400   1.414       .  A
C400       Br401   1.927       .  S
C405        C773   1.585       .  S
C405        C780   1.589       .  S
C405        C790   1.559       .  S
C405        C598   1.565   1_556  S
C406        C541   1.593       .  S
C406        C551   1.567       .  S
C406        C561   1.562       .  S
C406        C601   1.562       .  S
C407        C498   1.585       .  S
C407        C508   1.607       .  S
C407        C518   1.559       .  S
C407        C531   1.531       .  S
C408        C471   1.561       .  S
C408        C478   1.590       .  S
C408        C491   1.591       .  S
C408        C528   1.547       .  S
O409        C417   1.251       .  A
O409       Co429   1.870   1_565  S
O410       Co430   1.989       .  S
O411       C1227   1.270       .  A
O411       Co431   2.061       .  S
O412        C420   1.284       .  A
O412      Co1240   2.066   1_565  S
O413        C419   1.259   1_455  A
O413       Co430   2.002       .  S
O414        C420   1.251       .  A
O414       Co429   1.953   1_565  S
O415        C418   1.265       .  A
O415       Co432   1.988   1_565  S
O416       Co431   2.081       .  S
C417        C521   1.464       .  S
C418        C511   1.484       .  S
C419       O1219   1.270       .  A
C419        C449   1.529       .  S
C420        C581   1.485       .  S
O421        C434   1.263   1_565  A
O421       Co631   2.064   1_564  S
O422        C435   1.280       .  A
O422       Co430   2.047       .  S
O423        C436   1.258       .  A
O423       Co431   1.874       .  S
O424        C437   1.273       .  A
O425        C437   1.267       .  A
O425       Co430   2.008       .  S
O426        C436   1.302       .  A
O427       C1242   1.260   1_455  A
O427       Co634   2.008       .  S
O428        C435   1.246       .  A
O428      Co1239   1.941   1_455  S
Co429       O623   2.064   1_545  S
Co429       O837   2.040       .  S
Co430       O433   2.081       .  S
Co431      O1236   1.941       .  S
Co431      O1241   2.037       .  S
Co432      O1220   2.066   1_545  S
Co432       O629   2.008       .  S
O433       Co833   2.040   1_455  S
O433      Co1239   2.037   1_455  S
C434       O1235   1.260       .  A
C434        C464   1.532       .  S
C435        C501   1.477       .  S
C436        C591   1.457       .  S
C437        C568   1.496       .  S
O438       Co458   2.108       .  S
O439        C447   1.269       .  A
O439       Co459   1.999   1_565  S
O440        C448   1.249       .  A
O440       Co460   1.970       .  S
O441        C449   1.297   1_455  A
O441       Co461   2.099       .  S
O442        C448   1.268       .  A
O442      Co1267   2.029   1_565  S
O443       C1257   1.277       .  A
O443       Co458   1.968       .  S
O444       Co461   1.994       .  S
O445        C446   1.274       .  A
O445       Co460   1.895       .  S
C446        C488   1.485       .  S
C447        C481   1.502       .  S
C448        C548   1.494       .  S
C449       O1251   1.277       .  A
O450        C463   1.253       .  A
O450      Co1266   1.978   1_455  S
O451       C1272   1.261   1_455  A
O451       Co459   1.986       .  S
O452        C465   1.263       .  A
O453        C466   1.254       .  A
O453       Co461   1.977       .  S
O454        C466   1.264       .  A
O455        C465   1.258       .  A
O455       Co458   1.973       .  S
O456        C463   1.256       .  A
O456       Co461   2.001       .  S
O457        C464   1.286   1_565  A
O457       Co460   2.098       .  S
Co458      O1258   1.978       .  S
Co458      O1270   2.106       .  S
Co459      O1250   2.029   1_445  S
Co460       O866   1.940   1_565  S
Co461       O462   2.140       .  S
O462      Co1266   2.106   1_455  S
O462       Co864   1.940   1_455  S
C463        C468   1.498       .  S
C464       O1259   1.261       .  A
C465        C558   1.469       .  S
C466        C538   1.484       .  S
C467        C468   1.401       .  A
C467        C472   1.398       .  A
C467        H474   1.080       .  S
C468        C469   1.411       .  A
C469        C470   1.404       .  A
C469       Br476   1.895       .  S
C470        C471   1.410       .  A
C470        H475   1.080       .  S
C471        C472   1.430       .  A
C472       Br473   1.913       .  S
C477        C478   1.429       .  A
C477        C482   1.398       .  A
C477        H484   1.073       .  S
C478        C479   1.418       .  A
C479        C480   1.407       .  A
C479       Br486   1.922       .  S
C480        C481   1.416       .  A
C481        C482   1.402       .  A
C482       Br483   1.923       .  S
C487        C488   1.388       .  A
C487        C492   1.404       .  A
C487        H494   1.080       .  S
C488        C489   1.405       .  A
C489        C490   1.400       .  A
C490        C491   1.418       .  A
C490        H495   1.078       .  S
C491        C492   1.442       .  A
C492       Br493   1.906       .  S
C497        C498   1.412       .  A
C497        C502   1.402       .  A
C497        H504   1.073       .  S
C498        C499   1.445       .  A
C499        C500   1.404       .  A
C499       Br506   1.924       .  S
C500        C501   1.391       .  A
C500        H505   1.076       .  S
C501        C502   1.406       .  A
C502       Br503   1.918       .  S
C507        C508   1.423       .  A
C507        C512   1.395       .  A
C507        H514   1.064       .  S
C508        C509   1.452       .  A
C509        C510   1.404       .  A
C509       Br516   1.927       .  S
C510        C511   1.390       .  A
C510        H515   1.084       .  S
C511        C512   1.404       .  A
C517        C518   1.402       .  A
C517        C522   1.391       .  A
C517        H524   1.084       .  S
C518        C519   1.442       .  A
C519        C520   1.385       .  A
C519       Br526   1.928       .  S
C520        C521   1.385       .  A
C520        H525   1.084       .  S
C521        C522   1.420       .  A
C527        C528   1.418       .  A
C527        C532   1.379       .  A
C527        H534   1.081       .  S
C528        C529   1.430       .  A
C529        C530   1.373       .  A
C529       Br536   1.933       .  S
C530        C531   1.400       .  A
C530        H535   1.062       .  S
C531        C532   1.417       .  A
C532       Br533   1.928       .  S
C537        C538   1.407       .  A
C537        C542   1.405       .  A
C537        H544   1.083       .  S
C538        C539   1.393       .  A
C539        C540   1.386       .  A
C539       Br546   1.926       .  S
C540        C541   1.429       .  A
C540        H545   1.060       .  S
C541        C542   1.431       .  A
C542       Br543   1.917       .  S
C547        C548   1.409       .  A
C547        C552   1.405       .  A
C547        H554   1.079       .  S
C548        C549   1.404       .  A
C549        C550   1.396       .  A
C549      Br1364   1.916       .  S
C550        C551   1.427       .  A
C550        H555   1.082       .  S
C551        C552   1.417       .  A
C552       Br553   1.902       .  S
Br556      C1357   1.916   1_455  S
C557        C558   1.399       .  A
C557        C562   1.396       .  A
C557        H564   1.076       .  S
C558        C559   1.401       .  A
C559        C560   1.396       .  A
C559       Br566   1.924       .  S
C560        C561   1.423       .  A
C560        H565   1.083       .  S
C561        C562   1.424       .  A
C562       Br563   1.927       .  S
C567        C770   1.389   1_554  A
C567        C572   1.395       .  A
C567        H574   1.084       .  S
C568        C769   1.389       .  A
C568        C569   1.417       .  A
C569        C570   1.413       .  A
C569       Br576   1.920       .  S
C570        C571   1.418       .  A
C570        H575   1.082       .  S
C571        C607   1.585       .  S
C571        C774   1.437       .  A
C572        C773   1.437   1_554  A
C572       Br573   1.914       .  S
C577        C780   1.406       .  A
C577        C582   1.397   1_556  A
C577        H584   1.079       .  S
C578        C607   1.589       .  S
C578        C779   1.406       .  A
C578        C579   1.422       .  A
C579        C580   1.417       .  A
C579       Br586   1.921       .  S
C580        C581   1.408       .  A
C580        H585   1.081       .  S
C581        C784   1.409       .  A
C582        C783   1.409   1_554  A
C582       Br583   1.915       .  S
C587        C588   1.415       .  A
C587        C592   1.385       .  A
C587        H594   1.077       .  S
C588        C607   1.559       .  S
C588        C791   1.445       .  A
C589        C790   1.445       .  A
C589        C590   1.403       .  A
C589       Br596   1.936   1_556  S
C590        C793   1.394       .  A
C590        H595   1.084       .  S
C591        C792   1.394       .  A
C591        C592   1.402       .  A
C592       Br593   1.924       .  S
C597        C598   1.413       .  A
C597        C602   1.381       .  A
C597        H604   1.068       .  S
C598        C599   1.436       .  A
C599        C600   1.376       .  A
C599       Br606   1.937       .  S
C600        C601   1.400       .  A
C600        H605   1.080       .  S
C601        C602   1.414       .  A
C602       Br603   1.927       .  S
C607        C800   1.565       .  S
C608        C743   1.593       .  S
C608        C753   1.567       .  S
C608        C763   1.562       .  S
C608        C803   1.562       .  S
C609        C700   1.585       .  S
C609        C710   1.607       .  S
C609        C720   1.559       .  S
C609        C733   1.531       .  S
C610        C673   1.561       .  S
C610        C680   1.590       .  S
C610        C693   1.591       .  S
C610        C730   1.547       .  S
O611        C619   1.251       .  A
O611       Co631   1.870   1_565  S
O612       Co632   1.989       .  S
O613       C1429   1.270       .  A
O613       Co633   2.061       .  S
O614        C622   1.284   1_554  A
O614      Co1442   2.066   1_565  S
O615        C621   1.259   1_455  A
O615       Co632   2.003       .  S
O616        C622   1.251       .  A
O616       Co631   1.953   1_565  S
O617        C620   1.265       .  A
O617       Co634   1.988   1_566  S
O618       Co633   2.081       .  S
C619        C723   1.464       .  S
C620        C713   1.484       .  S
C621       O1421   1.270       .  A
C621        C651   1.529       .  S
C622        C783   1.485       .  S
O623        C636   1.263   1_565  A
O624        C637   1.280       .  A
O624       Co632   2.047       .  S
O625        C638   1.258       .  A
O625       Co633   1.874       .  S
O626        C639   1.273       .  A
O627        C639   1.267       .  A
O627       Co632   2.008       .  S
O628        C638   1.302       .  A
O629       C1444   1.260   1_455  A
O630        C637   1.246       .  A
O630      Co1441   1.941   1_455  S
Co631      O1039   2.040       .  S
Co632       O635   2.081       .  S
Co633      O1438   1.941       .  S
Co633      O1443   2.037       .  S
Co634      O1422   2.066   1_545  S
O635      Co1035   2.040   1_455  S
O635      Co1441   2.037   1_455  S
C636       O1437   1.260       .  A
C636        C666   1.532       .  S
C637        C703   1.477       .  S
C638        C793   1.457       .  S
C639        C770   1.496       .  S
O640       Co660   2.108       .  S
O641        C649   1.269       .  A
O641       Co661   1.999   1_565  S
O642        C650   1.249       .  A
O642       Co662   1.970       .  S
O643        C651   1.297   1_455  A
O643       Co663   2.099       .  S
O644        C650   1.268       .  A
O644      Co1469   2.029   1_565  S
O645       C1459   1.277       .  A
O645       Co660   1.968       .  S
O646       Co663   1.994       .  S
O647        C648   1.274       .  A
O647       Co662   1.895       .  S
C648        C690   1.485       .  S
C649        C683   1.502       .  S
C650        C750   1.494       .  S
C651       O1453   1.277       .  A
O652        C665   1.253       .  A
O652      Co1468   1.978   1_455  S
O653       C1474   1.261   1_455  A
O653       Co661   1.986       .  S
O654        C667   1.263       .  A
O655        C668   1.254       .  A
O655       Co663   1.977       .  S
O656        C668   1.264       .  A
O657        C667   1.258       .  A
O657       Co660   1.973       .  S
O658        C665   1.256       .  A
O658       Co663   2.001       .  S
O659        C666   1.286   1_565  A
O659       Co662   2.098       .  S
Co660      O1460   1.978       .  S
Co660      O1472   2.106       .  S
Co661      O1452   2.029   1_445  S
Co662      O1068   1.940   1_565  S
Co663       O664   2.140       .  S
O664      Co1468   2.106   1_455  S
O664      Co1066   1.940   1_455  S
C665        C670   1.498       .  S
C666       O1461   1.261       .  A
C667        C760   1.469       .  S
C668        C740   1.484       .  S
C669        C670   1.401       .  A
C669        C674   1.399       .  A
C669        H676   1.080       .  S
C670        C671   1.411       .  A
C671        C672   1.404       .  A
C671       Br678   1.895       .  S
C672        C673   1.410       .  A
C672        H677   1.080       .  S
C673        C674   1.430       .  A
C674       Br675   1.913       .  S
C679        C680   1.429       .  A
C679        C684   1.398       .  A
C679        H686   1.073       .  S
C680        C681   1.418       .  A
C681        C682   1.407       .  A
C681       Br688   1.922       .  S
C682        C683   1.416       .  A
C683        C684   1.402       .  A
C684       Br685   1.923       .  S
C689        C690   1.388       .  A
C689        C694   1.404       .  A
C689        H696   1.080       .  S
C690        C691   1.405       .  A
C691        C692   1.400       .  A
C692        C693   1.418       .  A
C692        H697   1.078       .  S
C693        C694   1.442       .  A
C694       Br695   1.906       .  S
C699        C700   1.412       .  A
C699        C704   1.402       .  A
C699        H706   1.073       .  S
C700        C701   1.445       .  A
C701        C702   1.404       .  A
C701       Br708   1.924       .  S
C702        C703   1.391       .  A
C702        H707   1.076       .  S
C703        C704   1.406       .  A
C704       Br705   1.918       .  S
C709        C710   1.423       .  A
C709        C714   1.395       .  A
C709        H716   1.064       .  S
C710        C711   1.452       .  A
C711        C712   1.404       .  A
C711       Br718   1.927       .  S
C712        C713   1.390       .  A
C712        H717   1.084       .  S
C713        C714   1.404       .  A
C719        C720   1.402       .  A
C719        C724   1.391       .  A
C719        H726   1.084       .  S
C720        C721   1.442       .  A
C721        C722   1.385       .  A
C721       Br728   1.928       .  S
C722        C723   1.385       .  A
C722        H727   1.084       .  S
C723        C724   1.420       .  A
C729        C730   1.418       .  A
C729        C734   1.379       .  A
C729        H736   1.081       .  S
C730        C731   1.430       .  A
C731        C732   1.373       .  A
C731       Br738   1.933       .  S
C732        C733   1.400       .  A
C732        H737   1.062       .  S
C733        C734   1.417       .  A
C734       Br735   1.928       .  S
C739        C740   1.407       .  A
C739        C744   1.405       .  A
C739        H746   1.083       .  S
C740        C741   1.393       .  A
C741        C742   1.386       .  A
C741       Br748   1.926       .  S
C742        C743   1.429       .  A
C742        H747   1.060       .  S
C743        C744   1.431       .  A
C744       Br745   1.917       .  S
C749        C750   1.409       .  A
C749        C754   1.405       .  A
C749        H756   1.079       .  S
C750        C751   1.404       .  A
C751        C752   1.396       .  A
C751      Br1566   1.916       .  S
C752        C753   1.427       .  A
C752        H757   1.082       .  S
C753        C754   1.417       .  A
C754       Br755   1.902       .  S
Br758      C1559   1.916   1_455  S
C759        C760   1.399       .  A
C759        C764   1.396       .  A
C759        H766   1.076       .  S
C760        C761   1.401       .  A
C761        C762   1.396       .  A
C761       Br768   1.924       .  S
C762        C763   1.423       .  A
C762        H767   1.083       .  S
C763        C764   1.424       .  A
C764       Br765   1.927       .  S
C769        C774   1.395       .  A
C769        H776   1.084       .  S
C770        C771   1.417       .  A
C771        C772   1.413       .  A
C771       Br778   1.920       .  S
C772        C773   1.418       .  A
C772        H777   1.082       .  S
C774       Br775   1.914       .  S
C779        C784   1.397       .  A
C779        H786   1.079       .  S
C780        C781   1.422       .  A
C781        C782   1.417       .  A
C781       Br788   1.921       .  S
C782        C783   1.408       .  A
C782        H787   1.081       .  S
C784       Br785   1.915       .  S
C789        C790   1.415       .  A
C789        C794   1.385       .  A
C789        H796   1.077       .  S
C791        C792   1.403       .  A
C791       Br798   1.936       .  S
C792        H797   1.084       .  S
C793        C794   1.402       .  A
C794       Br795   1.924       .  S
C799        C800   1.413       .  A
C799        C804   1.381       .  A
C799        H806   1.068       .  S
C800        C801   1.436       .  A
C801        C802   1.376       .  A
C801       Br808   1.937       .  S
C802        C803   1.400       .  A
C802        H807   1.080       .  S
C803        C804   1.414       .  A
C804       Br805   1.927       .  S
C809       C1177   1.585       .  S
C809       C1184   1.589       .  S
C809       C1194   1.559       .  S
C809       C1002   1.565   1_556  S
C810        C945   1.593       .  S
C810        C955   1.567       .  S
C810        C965   1.562       .  S
C810       C1005   1.562       .  S
C811        C902   1.585       .  S
C811        C912   1.607       .  S
C811        C922   1.559       .  S
C811        C935   1.531       .  S
C812        C875   1.561       .  S
C812        C882   1.590       .  S
C812        C895   1.591       .  S
C812        C932   1.547       .  S
O813        C821   1.251       .  A
O813       Co833   1.870       .  S
O814       C1226   1.268       .  A
O814       Co834   1.989   1_565  S
O815       Co835   2.061       .  S
O816        C824   1.284   1_455  A
O817        C823   1.259       .  A
O817       Co834   2.002       .  S
O818        C824   1.251       .  A
O818       Co833   1.953       .  S
O819        C822   1.265       .  A
O819       Co836   1.988       .  S
O820       C1225   1.302       .  A
O820       Co835   2.081   1_565  S
C821       O1224   1.302       .  A
C821        C925   1.464       .  S
C822       O1218   1.268       .  A
C822        C915   1.484       .  S
C823        C853   1.529       .  S
C824        C985   1.485       .  S
O825        C838   1.263       .  A
O825      Co1035   2.064   1_554  S
O826        C839   1.280       .  A
O826       Co834   2.047       .  S
O827        C840   1.258       .  A
O827       Co835   1.874       .  S
O828        C841   1.273       .  A
O828      Co1240   1.994       .  S
O829        C841   1.267       .  A
O829       Co834   2.008       .  S
O830        C840   1.302       .  A
O830      Co1237   2.094       .  S
O831      Co1038   2.008       .  S
O832        C839   1.246       .  A
Co833      O1027   2.064       .  S
Co833      O1234   2.094       .  S
Co834       O837   2.081       .  S
Co836      O1232   1.994       .  S
Co836      O1033   2.008       .  S
Co836      O1241   2.060       .  S
O837      Co1240   2.060       .  S
C838        C868   1.532       .  S
C839        C905   1.477       .  S
C840        C995   1.457       .  S
C841        C972   1.496       .  S
O842       C1254   1.313       .  A
O842       Co862   2.108   1_565  S
O843        C851   1.269       .  A
O843       Co863   1.999       .  S
O844        C852   1.249       .  A
O844       Co864   1.970       .  S
O845        C853   1.297       .  A
O845       Co865   2.099       .  S
O846        C852   1.268       .  A
O847       Co862   1.968       .  S
O848       C1255   1.276       .  A
O848       Co865   1.994   1_565  S
O849        C850   1.274       .  A
O849       Co864   1.895       .  S
C850       O1246   1.313       .  A
C850        C892   1.485       .  S
C851       O1252   1.276       .  A
C851        C885   1.502       .  S
C852        C952   1.494       .  S
O854        C867   1.253       .  A
O855       Co863   1.986       .  S
O856        C869   1.263       .  A
O856      Co1268   1.987   1_545  S
O857        C870   1.254       .  A
O857       Co865   1.977       .  S
O858        C870   1.264       .  A
O858      Co1267   1.988       .  S
O859        C869   1.258       .  A
O859       Co862   1.973       .  S
O860        C867   1.256       .  A
O860       Co865   2.001       .  S
O861        C868   1.286       .  A
O861       Co864   2.098       .  S
Co863      O1262   1.988       .  S
Co863      O1270   2.091       .  S
Co864      O1260   1.987       .  S
Co865       O866   2.140       .  S
O866      Co1267   2.091       .  S
C867        C872   1.498       .  S
C869        C962   1.469       .  S
C870        C942   1.484       .  S
C871        C872   1.401       .  A
C871        C876   1.398       .  A
C871        H878   1.080       .  S
C872        C873   1.411       .  A
C873        C874   1.404       .  A
C873       Br880   1.895       .  S
C874        C875   1.410       .  A
C874        H879   1.080       .  S
C875        C876   1.430       .  A
C876       Br877   1.913       .  S
C881        C882   1.429       .  A
C881        C886   1.398       .  A
C881        H888   1.073       .  S
C882        C883   1.418       .  A
C883        C884   1.407       .  A
C883       Br890   1.922       .  S
C884        C885   1.416       .  A
C884       H1293   1.081       .  S
C885        C886   1.402       .  A
C886       Br887   1.923       .  S
H889       C1288   1.081       .  S
C891        C892   1.388       .  A
C891        C896   1.404       .  A
C891        H898   1.080       .  S
C892        C893   1.405       .  A
C893        C894   1.400       .  A
C893      Br1304   1.908       .  S
C894        C895   1.418       .  A
C894        H899   1.078       .  S
C895        C896   1.442       .  A
C896       Br897   1.906       .  S
Br900      C1297   1.908   1_545  S
C901        C902   1.412       .  A
C901        C906   1.402       .  A
C901        H908   1.073       .  S
C902        C903   1.445       .  A
C903        C904   1.404       .  A
C903       Br910   1.924       .  S
C904        C905   1.391       .  A
C904        H909   1.076       .  S
C905        C906   1.406       .  A
C906       Br907   1.918       .  S
C911        C912   1.423       .  A
C911        C916   1.395       .  A
C911        H918   1.064       .  S
C912        C913   1.452       .  A
C913        C914   1.404       .  A
C913       Br920   1.927       .  S
C914        C915   1.390       .  A
C914        H919   1.084       .  S
C915        C916   1.404       .  A
C916      Br1321   1.926       .  S
Br917      C1320   1.926       .  S
C921        C922   1.402       .  A
C921        C926   1.391       .  A
C921        H928   1.084       .  S
C922        C923   1.442       .  A
C923        C924   1.385       .  A
C923       Br930   1.928       .  S
C924        C925   1.385       .  A
C924        H929   1.084       .  S
C925        C926   1.420       .  A
C926      Br1331   1.927       .  S
Br927      C1330   1.927       .  S
C931        C932   1.418       .  A
C931        C936   1.379       .  A
C931        H938   1.081       .  S
C932        C933   1.430       .  A
C933        C934   1.373       .  A
C933       Br940   1.933       .  S
C934        C935   1.400       .  A
C934        H939   1.062       .  S
C935        C936   1.417       .  A
C936       Br937   1.928       .  S
C941        C942   1.407       .  A
C941        C946   1.405       .  A
C941        H948   1.083       .  S
C942        C943   1.393       .  A
C943        C944   1.386       .  A
C943       Br950   1.926       .  S
C944        C945   1.429       .  A
C944        H949   1.060       .  S
C945        C946   1.431       .  A
C946       Br947   1.917       .  S
C951        C952   1.409       .  A
C951        C956   1.405       .  A
C951        H958   1.079       .  S
C952        C953   1.404       .  A
C953        C954   1.396       .  A
C954        C955   1.427       .  A
C954        H959   1.082       .  S
C955        C956   1.417       .  A
C956       Br957   1.902       .  S
C961        C962   1.399       .  A
C961        C966   1.396       .  A
C961        H968   1.076       .  S
C962        C963   1.401       .  A
C963        C964   1.396       .  A
C963       Br970   1.924       .  S
C964        C965   1.423       .  A
C964        H969   1.083       .  S
C965        C966   1.424       .  A
C966       Br967   1.927       .  S
C971       C1174   1.389   1_554  A
C971        C976   1.395       .  A
C971        H978   1.084       .  S
C972       C1173   1.389       .  A
C972        C973   1.417       .  A
C973        C974   1.413       .  A
C973       Br980   1.920       .  S
C974        C975   1.418       .  A
C974        H979   1.082       .  S
C975       C1011   1.585       .  S
C975       C1178   1.437       .  A
C976       C1177   1.437   1_554  A
C976       Br977   1.914       .  S
C981       C1184   1.406       .  A
C981        C986   1.397   1_556  A
C981        H988   1.079       .  S
C982       C1011   1.589       .  S
C982       C1183   1.406       .  A
C982        C983   1.422       .  A
C983        C984   1.417       .  A
C983       Br990   1.921       .  S
C984        C985   1.408       .  A
C984        H989   1.081       .  S
C985       C1188   1.409       .  A
C986       C1187   1.409   1_554  A
C986       Br987   1.915       .  S
C991        C992   1.415       .  A
C991        C996   1.385       .  A
C991        H998   1.077       .  S
C992       C1011   1.559       .  S
C992       C1195   1.445       .  A
C993       C1194   1.445       .  A
C993        C994   1.403       .  A
C993      Br1000   1.936   1_556  S
C994       C1197   1.394       .  A
C994        H999   1.084       .  S
C995       C1196   1.394       .  A
C995        C996   1.402       .  A
C996       Br997   1.924       .  S
C1001      C1002   1.413       .  A
C1001      C1006   1.381       .  A
C1001      H1008   1.068       .  S
C1002      C1003   1.436       .  A
C1003      C1004   1.376       .  A
C1003     Br1010   1.937       .  S
C1004      C1005   1.400       .  A
C1004      H1009   1.080       .  S
C1005      C1006   1.414       .  A
C1006     Br1007   1.927       .  S
C1011      C1204   1.565       .  S
C1012      C1147   1.593       .  S
C1012      C1157   1.567       .  S
C1012      C1167   1.562       .  S
C1012      C1207   1.562       .  S
C1013      C1104   1.585       .  S
C1013      C1114   1.607       .  S
C1013      C1124   1.559       .  S
C1013      C1137   1.531       .  S
C1014      C1077   1.561       .  S
C1014      C1084   1.590       .  S
C1014      C1097   1.591       .  S
C1014      C1134   1.547       .  S
O1015      C1023   1.251       .  A
O1015     Co1035   1.870       .  S
O1016      C1428   1.268       .  A
O1016     Co1036   1.989   1_565  S
O1017     Co1037   2.061       .  S
O1018      C1026   1.284   1_454  A
O1019      C1025   1.259       .  A
O1019     Co1036   2.003       .  S
O1020      C1026   1.251       .  A
O1020     Co1035   1.953       .  S
O1021      C1024   1.265       .  A
O1021     Co1038   1.988   1_556  S
O1022      C1427   1.302       .  A
O1022     Co1037   2.081   1_565  S
C1023      O1426   1.302       .  A
C1023      C1127   1.464       .  S
C1024      O1420   1.268       .  A
C1024      C1117   1.484       .  S
C1025      C1055   1.529       .  S
C1026      C1187   1.485       .  S
O1027      C1040   1.263       .  A
O1028      C1041   1.280       .  A
O1028     Co1036   2.047       .  S
O1029      C1042   1.258       .  A
O1029     Co1037   1.874       .  S
O1030      C1043   1.273       .  A
O1030     Co1442   1.995   1_556  S
O1031      C1043   1.267       .  A
O1031     Co1036   2.008       .  S
O1032      C1042   1.302       .  A
O1032     Co1439   2.094       .  S
O1034      C1041   1.246       .  A
Co1035     O1436   2.094       .  S
Co1036     O1039   2.081       .  S
Co1038     O1434   1.995   1_554  S
Co1038     O1443   2.060   1_554  S
O1039     Co1442   2.060   1_556  S
C1040      C1070   1.532       .  S
C1041      C1107   1.477       .  S
C1042      C1197   1.457       .  S
C1043      C1174   1.496       .  S
O1044      C1456   1.313       .  A
O1044     Co1064   2.108   1_565  S
O1045      C1053   1.269       .  A
O1045     Co1065   1.999       .  S
O1046      C1054   1.249       .  A
O1046     Co1066   1.970       .  S
O1047      C1055   1.297       .  A
O1047     Co1067   2.099       .  S
O1048      C1054   1.268       .  A
O1049     Co1064   1.968       .  S
O1050      C1457   1.276       .  A
O1050     Co1067   1.994   1_565  S
O1051      C1052   1.274       .  A
O1051     Co1066   1.895       .  S
C1052      O1448   1.313       .  A
C1052      C1094   1.485       .  S
C1053      O1454   1.276       .  A
C1053      C1087   1.502       .  S
C1054      C1154   1.494       .  S
O1056      C1069   1.253       .  A
O1057     Co1065   1.986       .  S
O1058      C1071   1.263       .  A
O1058     Co1470   1.987   1_545  S
O1059      C1072   1.254       .  A
O1059     Co1067   1.977       .  S
O1060      C1072   1.264       .  A
O1060     Co1469   1.988       .  S
O1061      C1071   1.258       .  A
O1061     Co1064   1.973       .  S
O1062      C1069   1.256       .  A
O1062     Co1067   2.001       .  S
O1063      C1070   1.286       .  A
O1063     Co1066   2.098       .  S
Co1065     O1464   1.988       .  S
Co1065     O1472   2.091       .  S
Co1066     O1462   1.987       .  S
Co1067     O1068   2.140       .  S
O1068     Co1469   2.091       .  S
C1069      C1074   1.498       .  S
C1071      C1164   1.469       .  S
C1072      C1144   1.484       .  S
C1073      C1074   1.401       .  A
C1073      C1078   1.399       .  A
C1073      H1080   1.080       .  S
C1074      C1075   1.411       .  A
C1075      C1076   1.404       .  A
C1075     Br1082   1.895       .  S
C1076      C1077   1.410       .  A
C1076      H1081   1.080       .  S
C1077      C1078   1.430       .  A
C1078     Br1079   1.913       .  S
C1083      C1084   1.429       .  A
C1083      C1088   1.398       .  A
C1083      H1090   1.073       .  S
C1084      C1085   1.418       .  A
C1085      C1086   1.407       .  A
C1085     Br1092   1.922       .  S
C1086      C1087   1.416       .  A
C1086      H1495   1.081       .  S
C1087      C1088   1.402       .  A
C1088     Br1089   1.923       .  S
H1091      C1490   1.081       .  S
C1093      C1094   1.388       .  A
C1093      C1098   1.404       .  A
C1093      H1100   1.080       .  S
C1094      C1095   1.405       .  A
C1095      C1096   1.400       .  A
C1095     Br1506   1.908       .  S
C1096      C1097   1.418       .  A
C1096      H1101   1.078       .  S
C1097      C1098   1.442       .  A
C1098     Br1099   1.906       .  S
Br1102     C1499   1.908   1_545  S
C1103      C1104   1.412       .  A
C1103      C1108   1.402       .  A
C1103      H1110   1.073       .  S
C1104      C1105   1.445       .  A
C1105      C1106   1.404       .  A
C1105     Br1112   1.924       .  S
C1106      C1107   1.391       .  A
C1106      H1111   1.076       .  S
C1107      C1108   1.406       .  A
C1108     Br1109   1.918       .  S
C1113      C1114   1.423       .  A
C1113      C1118   1.395       .  A
C1113      H1120   1.064       .  S
C1114      C1115   1.452       .  A
C1115      C1116   1.404       .  A
C1115     Br1122   1.927       .  S
C1116      C1117   1.390       .  A
C1116      H1121   1.084       .  S
C1117      C1118   1.404       .  A
C1118     Br1523   1.926       .  S
Br1119     C1522   1.926       .  S
C1123      C1124   1.402       .  A
C1123      C1128   1.391       .  A
C1123      H1130   1.084       .  S
C1124      C1125   1.442       .  A
C1125      C1126   1.385       .  A
C1125     Br1132   1.928       .  S
C1126      C1127   1.385       .  A
C1126      H1131   1.084       .  S
C1127      C1128   1.420       .  A
C1128     Br1533   1.927   1_556  S
Br1129     C1532   1.927   1_554  S
C1133      C1134   1.418       .  A
C1133      C1138   1.379       .  A
C1133      H1140   1.081       .  S
C1134      C1135   1.430       .  A
C1135      C1136   1.373       .  A
C1135     Br1142   1.933       .  S
C1136      C1137   1.400       .  A
C1136      H1141   1.062       .  S
C1137      C1138   1.417       .  A
C1138     Br1139   1.928       .  S
C1143      C1144   1.407       .  A
C1143      C1148   1.405       .  A
C1143      H1150   1.083       .  S
C1144      C1145   1.393       .  A
C1145      C1146   1.386       .  A
C1145     Br1152   1.926       .  S
C1146      C1147   1.429       .  A
C1146      H1151   1.060       .  S
C1147      C1148   1.431       .  A
C1148     Br1149   1.917       .  S
C1153      C1154   1.409       .  A
C1153      C1158   1.405       .  A
C1153      H1160   1.079       .  S
C1154      C1155   1.404       .  A
C1155      C1156   1.396       .  A
C1156      C1157   1.427       .  A
C1156      H1161   1.082       .  S
C1157      C1158   1.417       .  A
C1158     Br1159   1.902       .  S
C1163      C1164   1.399       .  A
C1163      C1168   1.396       .  A
C1163      H1170   1.076       .  S
C1164      C1165   1.401       .  A
C1165      C1166   1.396       .  A
C1165     Br1172   1.924       .  S
C1166      C1167   1.423       .  A
C1166      H1171   1.083       .  S
C1167      C1168   1.424       .  A
C1168     Br1169   1.927       .  S
C1173      C1178   1.395       .  A
C1173      H1180   1.084       .  S
C1174      C1175   1.417       .  A
C1175      C1176   1.413       .  A
C1175     Br1182   1.920       .  S
C1176      C1177   1.418       .  A
C1176      H1181   1.082       .  S
C1178     Br1179   1.914       .  S
C1183      C1188   1.397       .  A
C1183      H1190   1.079       .  S
C1184      C1185   1.422       .  A
C1185      C1186   1.417       .  A
C1185     Br1192   1.921       .  S
C1186      C1187   1.408       .  A
C1186      H1191   1.081       .  S
C1188     Br1189   1.915       .  S
C1193      C1194   1.415       .  A
C1193      C1198   1.385       .  A
C1193      H1200   1.077       .  S
C1195      C1196   1.403       .  A
C1195     Br1202   1.936       .  S
C1196      H1201   1.084       .  S
C1197      C1198   1.402       .  A
C1198     Br1199   1.924       .  S
C1203      C1204   1.413       .  A
C1203      C1208   1.381       .  A
C1203      H1210   1.068       .  S
C1204      C1205   1.436       .  A
C1205      C1206   1.376       .  A
C1205     Br1212   1.937       .  S
C1206      C1207   1.400       .  A
C1206      H1211   1.080       .  S
C1207      C1208   1.414       .  A
C1208     Br1209   1.927       .  S
C1213      C1581   1.585       .  S
C1213      C1588   1.589       .  S
C1213      C1598   1.559       .  S
C1213      C1406   1.565   1_556  S
C1214      C1349   1.593       .  S
C1214      C1359   1.567       .  S
C1214      C1369   1.562       .  S
C1214      C1409   1.562       .  S
C1215      C1306   1.585       .  S
C1215      C1316   1.607       .  S
C1215      C1326   1.559       .  S
C1215      C1339   1.531       .  S
C1216      C1279   1.561       .  S
C1216      C1286   1.590       .  S
C1216      C1299   1.591       .  S
C1216      C1336   1.547       .  S
O1217      C1225   1.251       .  A
O1217     Co1237   1.870   1_565  S
O1218     Co1238   1.989       .  S
O1219     Co1239   2.061       .  S
O1220      C1228   1.284   1_455  A
O1221      C1227   1.259       .  A
O1221     Co1238   2.002       .  S
O1222      C1228   1.251       .  A
O1222     Co1237   1.953   1_565  S
O1223      C1226   1.265       .  A
O1223     Co1240   1.988   1_565  S
O1224     Co1239   2.081       .  S
C1225      C1329   1.464       .  S
C1226      C1319   1.484       .  S
C1227      C1257   1.529       .  S
C1228      C1389   1.485       .  S
O1229      C1242   1.263   1_565  A
O1229     Co1439   2.064   1_564  S
O1230      C1243   1.280       .  A
O1230     Co1238   2.047       .  S
O1231      C1244   1.258       .  A
O1231     Co1239   1.874       .  S
O1232      C1245   1.273       .  A
O1233      C1245   1.267       .  A
O1233     Co1238   2.008       .  S
O1234      C1244   1.302       .  A
O1235     Co1442   2.008       .  S
O1236      C1243   1.246       .  A
Co1237     O1431   2.064   1_545  S
Co1238     O1241   2.081       .  S
Co1240     O1437   2.008       .  S
C1242      C1272   1.532       .  S
C1243      C1309   1.477       .  S
C1244      C1399   1.457       .  S
C1245      C1376   1.496       .  S
O1246     Co1266   2.108       .  S
O1247      C1255   1.269       .  A
O1247     Co1267   1.999   1_565  S
O1248      C1256   1.249       .  A
O1248     Co1268   1.970       .  S
O1249      C1257   1.297       .  A
O1249     Co1269   2.099       .  S
O1250      C1256   1.268       .  A
O1251     Co1266   1.968       .  S
O1252     Co1269   1.994       .  S
O1253      C1254   1.274       .  A
O1253     Co1268   1.895       .  S
C1254      C1296   1.485       .  S
C1255      C1289   1.502       .  S
C1256      C1356   1.494       .  S
O1258      C1271   1.253       .  A
O1259     Co1267   1.986       .  S
O1260      C1273   1.263       .  A
O1261      C1274   1.254       .  A
O1261     Co1269   1.977       .  S
O1262      C1274   1.264       .  A
O1263      C1273   1.258       .  A
O1263     Co1266   1.973       .  S
O1264      C1271   1.256       .  A
O1264     Co1269   2.001       .  S
O1265      C1272   1.286   1_565  A
O1265     Co1268   2.098       .  S
Co1269     O1270   2.140       .  S
C1271      C1276   1.498       .  S
C1273      C1366   1.469       .  S
C1274      C1346   1.484       .  S
C1275      C1276   1.401       .  A
C1275      C1280   1.398       .  A
C1275      H1282   1.080       .  S
C1276      C1277   1.411       .  A
C1277      C1278   1.404       .  A
C1277     Br1284   1.895       .  S
C1278      C1279   1.410       .  A
C1278      H1283   1.080       .  S
C1279      C1280   1.430       .  A
C1280     Br1281   1.913       .  S
C1285      C1286   1.429       .  A
C1285      C1290   1.398       .  A
C1285      H1292   1.073       .  S
C1286      C1287   1.418       .  A
C1287      C1288   1.407       .  A
C1287     Br1294   1.922       .  S
C1288      C1289   1.416       .  A
C1289      C1290   1.402       .  A
C1290     Br1291   1.923       .  S
C1295      C1296   1.388       .  A
C1295      C1300   1.404       .  A
C1295      H1302   1.080       .  S
C1296      C1297   1.405       .  A
C1297      C1298   1.400       .  A
C1298      C1299   1.418       .  A
C1298      H1303   1.078       .  S
C1299      C1300   1.442       .  A
C1300     Br1301   1.906       .  S
C1305      C1306   1.412       .  A
C1305      C1310   1.402       .  A
C1305      H1312   1.073       .  S
C1306      C1307   1.445       .  A
C1307      C1308   1.404       .  A
C1307     Br1314   1.924       .  S
C1308      C1309   1.391       .  A
C1308      H1313   1.076       .  S
C1309      C1310   1.406       .  A
C1310     Br1311   1.918       .  S
C1315      C1316   1.423       .  A
C1315      C1320   1.395       .  A
C1315      H1322   1.064       .  S
C1316      C1317   1.452       .  A
C1317      C1318   1.404       .  A
C1317     Br1324   1.927       .  S
C1318      C1319   1.390       .  A
C1318      H1323   1.084       .  S
C1319      C1320   1.404       .  A
C1325      C1326   1.402       .  A
C1325      C1330   1.391       .  A
C1325      H1332   1.084       .  S
C1326      C1327   1.442       .  A
C1327      C1328   1.385       .  A
C1327     Br1334   1.928       .  S
C1328      C1329   1.385       .  A
C1328      H1333   1.084       .  S
C1329      C1330   1.420       .  A
C1335      C1336   1.418       .  A
C1335      C1340   1.379       .  A
C1335      H1342   1.081       .  S
C1336      C1337   1.430       .  A
C1337      C1338   1.373       .  A
C1337     Br1344   1.933       .  S
C1338      C1339   1.400       .  A
C1338      H1343   1.062       .  S
C1339      C1340   1.417       .  A
C1340     Br1341   1.928       .  S
C1345      C1346   1.407       .  A
C1345      C1350   1.405       .  A
C1345      H1352   1.083       .  S
C1346      C1347   1.393       .  A
C1347      C1348   1.386       .  A
C1347     Br1354   1.926       .  S
C1348      C1349   1.429       .  A
C1348      H1353   1.060       .  S
C1349      C1350   1.431       .  A
C1350     Br1351   1.917       .  S
C1355      C1356   1.409       .  A
C1355      C1360   1.405       .  A
C1355      H1362   1.079       .  S
C1356      C1357   1.404       .  A
C1357      C1358   1.396       .  A
C1358      C1359   1.427       .  A
C1358      H1363   1.082       .  S
C1359      C1360   1.417       .  A
C1360     Br1361   1.902       .  S
C1365      C1366   1.399       .  A
C1365      C1370   1.396       .  A
C1365      H1372   1.076       .  S
C1366      C1367   1.401       .  A
C1367      C1368   1.396       .  A
C1367     Br1374   1.924       .  S
C1368      C1369   1.423       .  A
C1368      H1373   1.083       .  S
C1369      C1370   1.424       .  A
C1370     Br1371   1.927       .  S
C1375      C1578   1.389   1_554  A
C1375      C1380   1.395       .  A
C1375      H1382   1.084       .  S
C1376      C1577   1.389       .  A
C1376      C1377   1.417       .  A
C1377      C1378   1.413       .  A
C1377     Br1384   1.920       .  S
C1378      C1379   1.418       .  A
C1378      H1383   1.082       .  S
C1379      C1415   1.585       .  S
C1379      C1582   1.437       .  A
C1380      C1581   1.437   1_554  A
C1380     Br1381   1.914       .  S
C1385      C1588   1.406       .  A
C1385      C1390   1.397   1_556  A
C1385      H1392   1.079       .  S
C1386      C1415   1.589       .  S
C1386      C1587   1.406       .  A
C1386      C1387   1.422       .  A
C1387      C1388   1.417       .  A
C1387     Br1394   1.921       .  S
C1388      C1389   1.408       .  A
C1388      H1393   1.081       .  S
C1389      C1592   1.409       .  A
C1390      C1591   1.409   1_554  A
C1390     Br1391   1.915       .  S
C1395      C1396   1.415       .  A
C1395      C1400   1.385       .  A
C1395      H1402   1.077       .  S
C1396      C1415   1.559       .  S
C1396      C1599   1.445       .  A
C1397      C1598   1.445       .  A
C1397      C1398   1.403       .  A
C1397     Br1404   1.936   1_556  S
C1398      C1601   1.394       .  A
C1398      H1403   1.084       .  S
C1399      C1600   1.394       .  A
C1399      C1400   1.402       .  A
C1400     Br1401   1.924       .  S
C1405      C1406   1.413       .  A
C1405      C1410   1.381       .  A
C1405      H1412   1.068       .  S
C1406      C1407   1.436       .  A
C1407      C1408   1.376       .  A
C1407     Br1414   1.937       .  S
C1408      C1409   1.400       .  A
C1408      H1413   1.080       .  S
C1409      C1410   1.414       .  A
C1410     Br1411   1.927       .  S
C1415      C1608   1.565       .  S
C1416      C1551   1.593       .  S
C1416      C1561   1.567       .  S
C1416      C1571   1.562       .  S
C1416      C1611   1.562       .  S
C1417      C1508   1.585       .  S
C1417      C1518   1.607       .  S
C1417      C1528   1.559       .  S
C1417      C1541   1.531       .  S
C1418      C1481   1.561       .  S
C1418      C1488   1.590       .  S
C1418      C1501   1.591       .  S
C1418      C1538   1.547       .  S
O1419      C1427   1.251       .  A
O1419     Co1439   1.870   1_565  S
O1420     Co1440   1.989       .  S
O1421     Co1441   2.061       .  S
O1422      C1430   1.284   1_454  A
O1423      C1429   1.259       .  A
O1423     Co1440   2.003       .  S
O1424      C1430   1.251       .  A
O1424     Co1439   1.953   1_565  S
O1425      C1428   1.265       .  A
O1425     Co1442   1.988   1_566  S
O1426     Co1441   2.081       .  S
C1427      C1531   1.464       .  S
C1428      C1521   1.484       .  S
C1429      C1459   1.529       .  S
C1430      C1591   1.485       .  S
O1431      C1444   1.263   1_565  A
O1432      C1445   1.280       .  A
O1432     Co1440   2.047       .  S
O1433      C1446   1.258       .  A
O1433     Co1441   1.874       .  S
O1434      C1447   1.273       .  A
O1435      C1447   1.267       .  A
O1435     Co1440   2.008       .  S
O1436      C1446   1.302       .  A
O1438      C1445   1.246       .  A
Co1440     O1443   2.081       .  S
C1444      C1474   1.532       .  S
C1445      C1511   1.477       .  S
C1446      C1601   1.457       .  S
C1447      C1578   1.496       .  S
O1448     Co1468   2.108       .  S
O1449      C1457   1.269       .  A
O1449     Co1469   1.999   1_565  S
O1450      C1458   1.249       .  A
O1450     Co1470   1.970       .  S
O1451      C1459   1.297       .  A
O1451     Co1471   2.099       .  S
O1452      C1458   1.268       .  A
O1453     Co1468   1.968       .  S
O1454     Co1471   1.994       .  S
O1455      C1456   1.274       .  A
O1455     Co1470   1.895       .  S
C1456      C1498   1.485       .  S
C1457      C1491   1.502       .  S
C1458      C1558   1.494       .  S
O1460      C1473   1.253       .  A
O1461     Co1469   1.986       .  S
O1462      C1475   1.263       .  A
O1463      C1476   1.254       .  A
O1463     Co1471   1.977       .  S
O1464      C1476   1.264       .  A
O1465      C1475   1.258       .  A
O1465     Co1468   1.973       .  S
O1466      C1473   1.256       .  A
O1466     Co1471   2.001       .  S
O1467      C1474   1.286   1_565  A
O1467     Co1470   2.098       .  S
Co1471     O1472   2.140       .  S
C1473      C1478   1.498       .  S
C1475      C1568   1.469       .  S
C1476      C1548   1.484       .  S
C1477      C1478   1.401       .  A
C1477      C1482   1.399       .  A
C1477      H1484   1.080       .  S
C1478      C1479   1.411       .  A
C1479      C1480   1.404       .  A
C1479     Br1486   1.895       .  S
C1480      C1481   1.410       .  A
C1480      H1485   1.080       .  S
C1481      C1482   1.430       .  A
C1482     Br1483   1.913       .  S
C1487      C1488   1.429       .  A
C1487      C1492   1.398       .  A
C1487      H1494   1.073       .  S
C1488      C1489   1.418       .  A
C1489      C1490   1.407       .  A
C1489     Br1496   1.922       .  S
C1490      C1491   1.416       .  A
C1491      C1492   1.402       .  A
C1492     Br1493   1.923       .  S
C1497      C1498   1.388       .  A
C1497      C1502   1.404       .  A
C1497      H1504   1.080       .  S
C1498      C1499   1.405       .  A
C1499      C1500   1.400       .  A
C1500      C1501   1.418       .  A
C1500      H1505   1.078       .  S
C1501      C1502   1.442       .  A
C1502     Br1503   1.906       .  S
C1507      C1508   1.412       .  A
C1507      C1512   1.402       .  A
C1507      H1514   1.073       .  S
C1508      C1509   1.445       .  A
C1509      C1510   1.404       .  A
C1509     Br1516   1.924       .  S
C1510      C1511   1.391       .  A
C1510      H1515   1.076       .  S
C1511      C1512   1.406       .  A
C1512     Br1513   1.918       .  S
C1517      C1518   1.423       .  A
C1517      C1522   1.395       .  A
C1517      H1524   1.064       .  S
C1518      C1519   1.452       .  A
C1519      C1520   1.404       .  A
C1519     Br1526   1.927       .  S
C1520      C1521   1.390       .  A
C1520      H1525   1.084       .  S
C1521      C1522   1.404       .  A
C1527      C1528   1.402       .  A
C1527      C1532   1.391       .  A
C1527      H1534   1.084       .  S
C1528      C1529   1.442       .  A
C1529      C1530   1.385       .  A
C1529     Br1536   1.928       .  S
C1530      C1531   1.385       .  A
C1530      H1535   1.084       .  S
C1531      C1532   1.420       .  A
C1537      C1538   1.418       .  A
C1537      C1542   1.379       .  A
C1537      H1544   1.081       .  S
C1538      C1539   1.430       .  A
C1539      C1540   1.373       .  A
C1539     Br1546   1.933       .  S
C1540      C1541   1.400       .  A
C1540      H1545   1.062       .  S
C1541      C1542   1.417       .  A
C1542     Br1543   1.928       .  S
C1547      C1548   1.407       .  A
C1547      C1552   1.405       .  A
C1547      H1554   1.083       .  S
C1548      C1549   1.393       .  A
C1549      C1550   1.386       .  A
C1549     Br1556   1.926       .  S
C1550      C1551   1.429       .  A
C1550      H1555   1.060       .  S
C1551      C1552   1.431       .  A
C1552     Br1553   1.917       .  S
C1557      C1558   1.409       .  A
C1557      C1562   1.405       .  A
C1557      H1564   1.079       .  S
C1558      C1559   1.404       .  A
C1559      C1560   1.396       .  A
C1560      C1561   1.427       .  A
C1560      H1565   1.082       .  S
C1561      C1562   1.417       .  A
C1562     Br1563   1.902       .  S
C1567      C1568   1.399       .  A
C1567      C1572   1.396       .  A
C1567      H1574   1.076       .  S
C1568      C1569   1.401       .  A
C1569      C1570   1.396       .  A
C1569     Br1576   1.924       .  S
C1570      C1571   1.423       .  A
C1570      H1575   1.083       .  S
C1571      C1572   1.424       .  A
C1572     Br1573   1.927       .  S
C1577      C1582   1.395       .  A
C1577      H1584   1.084       .  S
C1578      C1579   1.417       .  A
C1579      C1580   1.413       .  A
C1579     Br1586   1.920       .  S
C1580      C1581   1.418       .  A
C1580      H1585   1.082       .  S
C1582     Br1583   1.914       .  S
C1587      C1592   1.397       .  A
C1587      H1594   1.079       .  S
C1588      C1589   1.422       .  A
C1589      C1590   1.417       .  A
C1589     Br1596   1.921       .  S
C1590      C1591   1.408       .  A
C1590      H1595   1.081       .  S
C1592     Br1593   1.915       .  S
C1597      C1598   1.415       .  A
C1597      C1602   1.385       .  A
C1597      H1604   1.077       .  S
C1599      C1600   1.403       .  A
C1599     Br1606   1.936       .  S
C1600      H1605   1.084       .  S
C1601      C1602   1.402       .  A
C1602     Br1603   1.924       .  S
C1607      C1608   1.413       .  A
C1607      C1612   1.381       .  A
C1607      H1614   1.068       .  S
C1608      C1609   1.436       .  A
C1609      C1610   1.376       .  A
C1609     Br1616   1.937       .  S
C1610      C1611   1.400       .  A
C1610      H1615   1.080       .  S
C1611      C1612   1.414       .  A
C1612     Br1613   1.927       .  S
