geometry optimzed in LAMMPS
_audit_creation_date              2020-11-30 
_audit_creation_method            'lammps2cif' 
_symmetry_space_group_name_H-M    'P1' 
_symmetry_Int_Tables_number       1 
_symmetry_cell_setting            triclinic 
loop_ 
_symmetry_equiv_pos_as_xyz 
  x,y,z 
_cell_length_a                    50.40818819 
_cell_length_b                    50.306885242655106 
_cell_length_c                    95.53664583449759 
_cell_angle_alpha                 90.13487841750421 
_cell_angle_beta                  90.0730333471886 
_cell_angle_gamma                 90.02302655121018 
loop_ 
_atom_site_label 
_atom_site_type_symbol 
_atom_site_fract_x 
_atom_site_fract_y 
_atom_site_fract_z 
_atom_site_charge 
N1          N  0.73591031  0.96878752  0.35367951    -0.27200
N2          N  0.75983365  0.95974854  0.35680810    -0.35100
C3          C  0.76548030  0.93924627  0.34818952     0.01100
C4          C  0.74397593  0.93507811  0.33932770     0.07100
C5          C  0.72565240  0.95420141  0.34317948    -0.06000
H6          H  0.78378950  0.92804979  0.34845039     0.07800
H7          H  0.70646986  0.95777594  0.33845690     0.09000
Cu8        Cu  0.78342128  0.97579131  0.37283706     0.44200
Cu9        Cu  0.71840334  0.00170866  0.36288536     0.42000
Cu10       Cu  0.75532608  0.03535751  0.38926522     0.43900
N11         N  0.80103085  0.99594605  0.38970210    -0.34600
N12         N  0.79057053  0.01743151  0.39547685    -0.28900
C13         C  0.80594889  0.02536369  0.40618869    -0.05000
C14         C  0.82734809  0.00815600  0.40740192     0.07200
C15         C  0.82345446  0.98968235  0.39670616     0.01000
H16         H  0.80128676  0.04217234  0.41280504     0.08700
H17         H  0.83578428  0.97271969  0.39425744     0.07800
N18         N  0.71996760  0.05017757  0.38125134    -0.36100
N19         N  0.70626514  0.03746719  0.37154883    -0.28200
C20         C  0.68505925  0.05215077  0.36798001    -0.03500
C21         C  0.68526213  0.07546926  0.37580991     0.05100
C22         C  0.70780520  0.07336989  0.38415176     0.03200
H23         H  0.67101742  0.04639979  0.35996779     0.08300
H24         H  0.71516321  0.08771388  0.39165313     0.07200
O25         O  0.74720011  0.73060691  0.26127853    -0.72900
O26         O  0.74355377  0.78402615  0.22976347    -0.73900
O27         O  0.74679275  0.78671831  0.25931295    -0.62500
O28         O  0.74510083  0.72774193  0.23149437    -0.70900
O29         O  0.70118228  0.72665052  0.23205707    -0.70400
O30         O  0.70290869  0.78699287  0.26051326    -0.61700
O31         O  0.69961715  0.78303399  0.23072782    -0.74200
O32         O  0.70325513  0.73065955  0.26179797    -0.73000
Cu33       Cu  0.74715904  0.75725260  0.24540624     1.04600
Cu34       Cu  0.70020041  0.75677167  0.24631174     1.04300
C35         C  0.72539453  0.72250018  0.26663866     0.93300
C36         C  0.72093220  0.79199900  0.22532675     0.92500
C37         C  0.72544536  0.79625512  0.26441968     0.84600
C38         C  0.72320900  0.71791133  0.22719538     0.90900
N39         N  0.72922223  0.56416444  0.36175743    -0.27200
N40         N  0.70453206  0.57090926  0.36472753    -0.35100
C41         C  0.69737630  0.59127258  0.35642725     0.01100
C42         C  0.71869987  0.59767045  0.34787801     0.07100
C43         C  0.73849288  0.58001318  0.35160257    -0.06000
H44         H  0.67807703  0.60064980  0.35662830     0.07800
H45         H  0.75797038  0.57811576  0.34697336     0.09000
Cu46       Cu  0.68213675  0.55205379  0.38004808     0.44200
Cu47       Cu  0.74907353  0.53277004  0.37077378     0.42000
Cu48       Cu  0.71564925  0.49815981  0.39835606     0.43900
N49         N  0.66643464  0.53229021  0.39724398    -0.34600
N50         N  0.67907566  0.51344245  0.40420195    -0.28900
C51         C  0.66432483  0.50611637  0.41526551    -0.05000
C52         C  0.64113541  0.52086298  0.41521167     0.07200
C53         C  0.64314806  0.53719397  0.40360554     0.01000
H54         H  0.67002121  0.49101428  0.42272861     0.08700
H55         H  0.62909244  0.55213057  0.40025202     0.07800
N56         N  0.75147978  0.48580555  0.38990973    -0.36100
N57         N  0.76389611  0.49876380  0.37986119    -0.28200
C58         C  0.78625816  0.48569820  0.37650356    -0.03500
C59         C  0.78802783  0.46325627  0.38482498     0.05100
C60         C  0.76556587  0.46403229  0.39320526     0.03200
H61         H  0.79985834  0.49187933  0.36839233     0.08300
H62         H  0.75983371  0.44994061  0.40117781     0.07200
N63         N  0.72113573  0.55300332  0.13376054    -0.27200
N64         N  0.74588975  0.56019067  0.13127916    -0.35100
C65         C  0.75274062  0.57955560  0.14031664     0.01100
C66         C  0.73125001  0.58486138  0.14897536     0.07100
C67         C  0.71157035  0.56757501  0.14443381    -0.06000
H68         H  0.77199622  0.58902311  0.14048990     0.07800
H69         H  0.69186252  0.56525136  0.14871238     0.09000
Cu70       Cu  0.76914526  0.54324820  0.11571042     0.44200
Cu71       Cu  0.70168652  0.52304999  0.12290040     0.42000
Cu72       Cu  0.73586223  0.49297403  0.09414310     0.43900
N73         N  0.78624938  0.52487177  0.09846840    -0.34600
N74         N  0.77371607  0.50738886  0.09048436    -0.28900
C75         C  0.78935051  0.50079400  0.07966673    -0.05000
C76         C  0.81295143  0.51466188  0.08087056     0.07200
C77         C  0.81036582  0.52964780  0.09296948     0.01000
H78         H  0.78377041  0.48702289  0.07146213     0.08700
H79         H  0.82445573  0.54383786  0.09714056     0.07800
N80         N  0.69926208  0.47977529  0.10109467    -0.36100
N81         N  0.68678903  0.49099885  0.11170817    -0.28200
C82         C  0.66483978  0.47693560  0.11458982    -0.03500
C83         C  0.66329442  0.45559143  0.10537612     0.05100
C84         C  0.68555830  0.45817731  0.09692450     0.03200
H85         H  0.65181718  0.48130563  0.12327271     0.08300
H86         H  0.69197287  0.44487763  0.08869483     0.07200
N87         N  0.71723951  0.96773566  0.13860775    -0.27200
N88         N  0.69599546  0.95640480  0.13307419    -0.35100
C89         C  0.69015770  0.93436258  0.14042730     0.01100
C90         C  0.70869411  0.93161141  0.15108385     0.07100
C91         C  0.72551395  0.95321484  0.14955065    -0.06000
H92         H  0.67378776  0.92119898  0.13804822     0.07800
H93         H  0.74236962  0.95837919  0.15602009     0.09000
Cu94       Cu  0.67618380  0.97122505  0.11563580     0.44200
Cu95       Cu  0.73417119  0.00274425  0.13149533     0.42000
Cu96       Cu  0.70450814  0.03106243  0.10082456     0.43900
N97         N  0.66174286  0.98960794  0.09768152    -0.34600
N98         N  0.67268572  0.01099518  0.09211826    -0.28900
C99         C  0.65924260  0.01773851  0.08050230    -0.05000
C100        C  0.63861977  0.99989758  0.07867817     0.07200
C101        C  0.64079364  0.98234718  0.08980057     0.01000
H102        H  0.66377249  0.03483243  0.07408326     0.08700
H103        H  0.62820662  0.96543398  0.09197355     0.07800
N104        N  0.73541498  0.04881144  0.11159656    -0.36100
N105        N  0.74644478  0.03845516  0.12287038    -0.28200
C106        C  0.76616561  0.05449502  0.12722182    -0.03500
C107        C  0.76768222  0.07607935  0.11821782     0.05100
C108        C  0.74775176  0.07169453  0.10845105     0.03200
H109        H  0.77883771  0.05027816  0.13608018     0.08300
H110        H  0.74260038  0.08399506  0.09959385     0.07200
C111        C  0.47658405  0.02561997  0.00694250     0.02300
C112        C  0.49812347  0.00809398  0.00488746     0.02300
C113        C  0.49841960  0.99137699  0.99315151    -0.18200
C114        C  0.47744083  0.99150383  0.98345299     0.02300
C115        C  0.45602820  0.00944613  0.98536511     0.02300
C116        C  0.45577984  0.02606533  0.99718923    -0.18200
H117        H  0.43960037  0.04000350  0.99862388     0.04400
H118        H  0.51460605  0.97738914  0.99187946     0.04400
N119        N  0.23053341  0.04593252  0.85499642    -0.27200
N120        N  0.25235112  0.05678763  0.86010003    -0.35100
C121        C  0.25819874  0.07861187  0.85257339     0.01100
C122        C  0.23902224  0.08168590  0.84221774     0.07100
C123        C  0.22190186  0.06041567  0.84413030    -0.06000
H124        H  0.27482595  0.09155857  0.85476049     0.07800
H125        H  0.20420443  0.05575074  0.83821701     0.09000
Cu126      Cu  0.27174450  0.04186096  0.87761775     0.44200
Cu127      Cu  0.21229412  0.01288371  0.86343077     0.42000
Cu128      Cu  0.23717358  0.98845396  0.89629077     0.43900
N129        N  0.28503238  0.02486654  0.89616451    -0.34600
N130        N  0.27201936  0.00643323  0.90324929    -0.28900
C131        C  0.28577535  0.00057768  0.91493545    -0.05000
C132        C  0.30869910  0.01576235  0.91511268     0.07200
C133        C  0.30755904  0.03086947  0.90303822     0.01000
H134        H  0.27993263  0.98573583  0.92250711     0.08700
H135        H  0.32196977  0.04533077  0.89953293     0.07800
N136        N  0.20453468  0.97212935  0.88601195    -0.36100
N137        N  0.19568870  0.98109003  0.87389994    -0.28200
C138        C  0.17485851  0.96634191  0.86978455    -0.03500
C139        C  0.17018858  0.94690460  0.87977116     0.05100
C140        C  0.18952364  0.95131660  0.88993015     0.03200
H141        H  0.16408168  0.96968396  0.86016404     0.08300
H142        H  0.19272151  0.94022092  0.89945547     0.07200
N143        N  0.22106457  0.46670705  0.85862166    -0.27200
N144        N  0.19705724  0.45797849  0.86171040    -0.35100
C145        C  0.19131487  0.43733340  0.85322772     0.01100
C146        C  0.21288732  0.43284898  0.84448492     0.07100
C147        C  0.23134323  0.45186454  0.84826750    -0.06000
H148        H  0.17283476  0.42640461  0.85343164     0.07800
H149        H  0.25052516  0.45531137  0.84354137     0.09000
Cu150      Cu  0.17389834  0.47490538  0.87751179     0.44200
Cu151      Cu  0.23833974  0.49945461  0.86777176     0.42000
Cu152      Cu  0.20305114  0.53447875  0.89416393     0.43900
N153        N  0.15808454  0.49434454  0.89496011    -0.34600
N154        N  0.16918790  0.51528564  0.90100995    -0.28900
C155        C  0.15542717  0.52170347  0.91254900    -0.05000
C156        C  0.13446865  0.50420250  0.91384973     0.07200
C157        C  0.13661907  0.48719339  0.90246799     0.01000
H158        H  0.16038385  0.53799422  0.91948900     0.08700
H159        H  0.12403724  0.47035630  0.90007019     0.07800
N160        N  0.23896569  0.54755610  0.88633777    -0.36100
N161        N  0.25197249  0.53409732  0.87668436    -0.28200
C162        C  0.27474896  0.54661479  0.87377365    -0.03500
C163        C  0.27639247  0.56927860  0.88201343     0.05100
C164        C  0.25320134  0.56918811  0.88987855     0.03200
H165        H  0.28899682  0.53937574  0.86623480     0.08300
H166        H  0.24702196  0.58362619  0.89761271     0.07200
O167        O  0.20082075  0.23049952  0.73509086    -0.72900
O168        O  0.20385217  0.28887443  0.76303867    -0.73900
O169        O  0.20331486  0.28658284  0.73332943    -0.62500
O170        O  0.20247975  0.23247313  0.76469778    -0.70900
O171        O  0.24647361  0.23219392  0.76437364    -0.70400
O172        O  0.24723529  0.28469111  0.73339933    -0.61700
O173        O  0.24779974  0.28845977  0.76312511    -0.74200
O174        O  0.24472258  0.22840112  0.73465224    -0.73000
Cu175      Cu  0.20110149  0.25969089  0.74906762     1.04600
Cu176      Cu  0.24808896  0.25838273  0.74886785     1.04300
C177        C  0.22206752  0.22011637  0.73036125     0.93300
C178        C  0.22584081  0.29802284  0.76760619     0.92500
C179        C  0.22571535  0.29397452  0.72836064     0.84600
C180        C  0.22462983  0.22388583  0.76946519     0.90900
N181        N  0.21060568  0.04104829  0.64531625    -0.27200
N182        N  0.18843135  0.05197620  0.64068240    -0.35100
C183        C  0.18401792  0.07460305  0.64784575     0.01100
C184        C  0.20450569  0.07815474  0.65737109     0.07100
C185        C  0.22102743  0.05651652  0.65541062    -0.06000
H186        H  0.16704002  0.08740488  0.64628008     0.07800
H187        H  0.23880231  0.05177551  0.66125010     0.09000
Cu188      Cu  0.16486438  0.03528630  0.62505357     0.44200
Cu189      Cu  0.22486726  0.00466049  0.63862049     0.42000
Cu190      Cu  0.18609898  0.97016696  0.61268442     0.43900
N191        N  0.14557890  0.01426658  0.60922589    -0.34600
N192        N  0.15322843  0.99051312  0.60488846    -0.28900
C193        C  0.13758895  0.98284501  0.59420930    -0.05000
C194        C  0.11913804  0.00274555  0.59151833     0.07200
C195        C  0.12487951  0.02233011  0.60136693     0.01000
H196        H  0.14015303  0.96433937  0.58860922     0.08700
H197        H  0.11537894  0.04147848  0.60248849     0.07800
N198        N  0.22088664  0.95483653  0.62129516    -0.36100
N199        N  0.23481460  0.96753520  0.63094083    -0.28200
C200        C  0.25600578  0.95278765  0.63446641    -0.03500
C201        C  0.25565192  0.92964610  0.62658742     0.05100
C202        C  0.23306891  0.93168275  0.61831639     0.03200
H203        H  0.27085717  0.95881673  0.64201531     0.08300
H204        H  0.22589184  0.91735515  0.61074765     0.07200
N205        N  0.23030297  0.45812356  0.63581626    -0.27200
N206        N  0.25451739  0.45002498  0.63264370    -0.35100
C207        C  0.26105513  0.42981286  0.64119962     0.01100
C208        C  0.23981898  0.42491993  0.65007233     0.07100
C209        C  0.22075643  0.44331527  0.64632733    -0.06000
H210        H  0.27969595  0.41919597  0.64080361     0.07800
H211        H  0.20142937  0.44610291  0.65101130     0.09000
Cu212      Cu  0.27688370  0.46612586  0.61637209     0.44200
Cu213      Cu  0.21075239  0.48914273  0.62627536     0.42000
Cu214      Cu  0.24296092  0.51903563  0.59742716     0.43900
N215        N  0.29148376  0.48386723  0.59822614    -0.34600
N216        N  0.27835345  0.50230540  0.59121462    -0.28900
C217        C  0.29180164  0.50852112  0.57956642    -0.05000
C218        C  0.31470544  0.49351998  0.57920599     0.07200
C219        C  0.31399830  0.47816872  0.59124086     0.01000
H220        H  0.28543834  0.52314305  0.57198538     0.08700
H221        H  0.32839387  0.46346632  0.59448100     0.07800
N222        N  0.20814150  0.53360636  0.60567662    -0.36100
N223        N  0.19604963  0.52230242  0.61634030    -0.28200
C224        C  0.17453984  0.53662423  0.61972048    -0.03500
C225        C  0.17300446  0.55823408  0.61074482     0.05100
C226        C  0.19472335  0.55552402  0.60194034     0.03200
H227        H  0.16137198  0.53168363  0.62824667     0.08300
H228        H  0.20082995  0.56868661  0.59361792     0.07200
C229        C  0.98026355  0.49715720  0.01141297     0.02300
C230        C  0.95897637  0.51537893  0.01036942     0.02300
C231        C  0.95747593  0.53263947  0.99885792    -0.18200
C232        C  0.97691357  0.53241277  0.98839161     0.02300
C233        C  0.99851284  0.51458827  0.98957503     0.02300
C234        C  0.00012712  0.49742832  0.00113909    -0.18200
H235        H  0.01625373  0.48321494  0.00174852     0.04400
H236        H  0.94113009  0.54657866  0.99811454     0.04400
O237        O  0.75455637  0.73876860  0.72982934    -0.72900
O238        O  0.69959859  0.74087015  0.76032009    -0.73900
O239        O  0.69861576  0.73831794  0.73067109    -0.62500
O240        O  0.75559295  0.74064622  0.75947576    -0.70900
O241        O  0.75590488  0.78469254  0.75891390    -0.70400
O242        O  0.69747011  0.78233109  0.72979902    -0.61700
O243        O  0.69995067  0.78493636  0.75960677    -0.74200
O244        O  0.75389028  0.78279873  0.72908827    -0.73000
Cu245      Cu  0.72709285  0.73815962  0.74509320     1.04600
Cu246      Cu  0.72680760  0.78525497  0.74429452     1.04300
C247        C  0.76283049  0.76061642  0.72459245     0.93300
C248        C  0.69139687  0.76331729  0.76491168     0.92500
C249        C  0.68900105  0.75967463  0.72558387     0.84600
C250        C  0.76459090  0.76280247  0.76396058     0.90900
N251        N  0.52055684  0.76399824  0.85406011    -0.27200
N252        N  0.53047910  0.78670081  0.85867000    -0.35100
C253        C  0.55189348  0.79299571  0.85097764     0.01100
C254        C  0.55571415  0.77325007  0.84101559     0.07100
C255        C  0.53533951  0.75524924  0.84332564    -0.06000
H256        H  0.56380540  0.81059648  0.85264743     0.07800
H257        H  0.53125083  0.73712769  0.83761740     0.09000
Cu258      Cu  0.51444425  0.80816367  0.87512284     0.44200
Cu259      Cu  0.48760237  0.74533695  0.86244371     0.42000
Cu260      Cu  0.45545243  0.77981399  0.89059084     0.43900
N261        N  0.49372612  0.82564130  0.89141409    -0.34600
N262        N  0.47206606  0.81530643  0.89693603    -0.28900
C263        C  0.46350831  0.83112742  0.90731546    -0.05000
C264        C  0.48062010  0.85260201  0.90844604     0.07200
C265        C  0.49957361  0.84837645  0.89815442     0.01000
H266        H  0.44639444  0.82681183  0.91373065     0.08700
H267        H  0.51644939  0.86077277  0.89569136     0.07800
N268        N  0.44296848  0.74342105  0.88315115    -0.36100
N269        N  0.45473367  0.73058214  0.87282945    -0.28200
C270        C  0.44180688  0.70762005  0.87050505    -0.03500
C271        C  0.42076656  0.70589246  0.87985249     0.05100
C272        C  0.42226283  0.72908416  0.88769449     0.03200
H273        H  0.44737775  0.69346162  0.86251035     0.08300
H274        H  0.40922343  0.73544521  0.89602078     0.07200
N275        N  0.91408606  0.76468627  0.86326323    -0.27200
N276        N  0.90572136  0.74031905  0.86602903    -0.35100
C277        C  0.88585466  0.73426414  0.85715045     0.01100
C278        C  0.88148097  0.75585604  0.84843637     0.07100
C279        C  0.89963413  0.77480514  0.85271997    -0.06000
H280        H  0.87605884  0.71514377  0.85672406     0.07800
H281        H  0.90351434  0.79377926  0.84782328     0.09000
Cu282      Cu  0.92335086  0.71497219  0.88062384     0.44200
Cu283      Cu  0.94804019  0.78172023  0.87146825     0.42000
Cu284      Cu  0.98770441  0.73808579  0.89198474     0.43900
N285        N  0.94696017  0.69421294  0.89487970    -0.34600
N286        N  0.97064867  0.70284187  0.89868177    -0.28900
C287        C  0.98090890  0.68624265  0.90822074    -0.05000
C288        C  0.96286204  0.66596957  0.91079183     0.07200
C289        C  0.94151277  0.67173601  0.90202345     0.01000
H290        H  0.99989037  0.68949271  0.91319683     0.08700
H291        H  0.92302963  0.66093594  0.90117885     0.07800
N292        N  0.00105583  0.77477377  0.88510504    -0.36100
N293        N  0.98634970  0.79096248  0.87749820    -0.28200
C294        C  0.00065577  0.81266145  0.87426249    -0.03500
C295        C  0.02557891  0.81013010  0.88025105     0.05100
C296        C  0.02504622  0.78585749  0.88708767     0.03200
H297        H  0.99334037  0.82911134  0.86809231     0.08300
H298        H  0.04102669  0.77668291  0.89289584     0.07200
N299        N  0.50746304  0.74483781  0.64271622    -0.27200
N300        N  0.52002023  0.72490506  0.63660068    -0.35100
C301        C  0.54373021  0.72165993  0.64286906     0.01100
C302        C  0.54623289  0.74062142  0.65336951     0.07100
C303        C  0.52284077  0.75496498  0.65290523    -0.06000
H304        H  0.55797061  0.70650270  0.64003402     0.07800
H305        H  0.51694844  0.77101862  0.65978118     0.09000
Cu306      Cu  0.50366910  0.70273731  0.62031799     0.44200
Cu307      Cu  0.46939157  0.75660629  0.63768364     0.42000
Cu308      Cu  0.43495831  0.71906482  0.61140268     0.43900
N309        N  0.48183408  0.68360678  0.60477422    -0.34600
N310        N  0.45688161  0.68929951  0.60175611    -0.28900
C311        C  0.44874421  0.67363585  0.59117884    -0.05000
C312        C  0.46954113  0.65716353  0.58723145     0.07200
C313        C  0.49021196  0.66416025  0.59615374     0.01000
H314        H  0.42919612  0.67475695  0.58655965     0.08700
H315        H  0.51001670  0.65594398  0.59638737     0.07800
N316        N  0.41865709  0.75193956  0.62135285    -0.36100
N317        N  0.43137955  0.76552865  0.63111597    -0.28200
C318        C  0.41645692  0.78633646  0.63507909    -0.03500
C319        C  0.39319881  0.78607107  0.62734682     0.05100
C320        C  0.39530225  0.76390138  0.61874443     0.03200
H321        H  0.42269208  0.80120798  0.64258919     0.08300
H322        H  0.38119349  0.75720574  0.61095856     0.07200
N323        N  0.92853270  0.75100990  0.63246437    -0.27200
N324        N  0.92138448  0.77566095  0.62954970    -0.35100
C325        C  0.90193795  0.78296815  0.63835063     0.01100
C326        C  0.89655172  0.76194213  0.64727847     0.07100
C327        C  0.91381060  0.74197303  0.64317605    -0.06000
H328        H  0.89251429  0.80227036  0.63821711     0.07800
H329        H  0.91614648  0.72256711  0.64786573     0.09000
Cu330      Cu  0.93864779  0.79892881  0.61406266     0.44200
Cu331      Cu  0.95934417  0.73146683  0.62261514     0.42000
Cu332      Cu  0.99507376  0.76979173  0.59688126     0.43900
N333        N  0.95884957  0.81738263  0.59776941    -0.34600
N334        N  0.97923725  0.80621239  0.59137215    -0.28900
C335        C  0.98712824  0.82187675  0.58080580    -0.05000
C336        C  0.97105019  0.84416850  0.58050350     0.07200
C337        C  0.95338413  0.84070997  0.59148261     0.01000
H338        H  0.00328899  0.81719164  0.57378143     0.08700
H339        H  0.93714117  0.85366275  0.59435313     0.07800
N340        N  0.00768467  0.73330929  0.60423211    -0.36100
N341        N  0.99435966  0.71917003  0.61348750    -0.28200
C342        C  0.00833084  0.69729881  0.61666036    -0.03500
C343        C  0.03175811  0.69765865  0.60907451     0.05100
C344        C  0.03054069  0.72079752  0.60124324     0.03200
H345        H  0.00196379  0.68258623  0.62417127     0.08300
H346        H  0.04547558  0.72854953  0.59423682     0.07200
N347        N  0.02324933  0.25851884  0.13546604    -0.27200
N348        N  0.03147394  0.28252603  0.13191028    -0.35100
C349        C  0.05220768  0.28928877  0.14004841     0.01100
C350        C  0.05742754  0.26849200  0.14914174     0.07100
C351        C  0.03868455  0.24928493  0.14587158    -0.06000
H352        H  0.06253208  0.30810300  0.13944425     0.07800
H353        H  0.03569366  0.23044603  0.15107290     0.09000
Cu354      Cu  0.01384097  0.30543633  0.11639824     0.44200
Cu355      Cu  0.98981390  0.24047974  0.12703279     0.42000
Cu356      Cu  0.95503873  0.27819811  0.10033782     0.43900
N357        N  0.99379284  0.32386238  0.10006011    -0.34600
N358        N  0.97231827  0.31380156  0.09414367    -0.28900
C359        C  0.96441874  0.32999835  0.08376298    -0.05000
C360        C  0.98177280  0.35144135  0.08302442     0.07200
C361        C  0.00015300  0.34672612  0.09358780     0.01000
H362        H  0.94746682  0.32605999  0.07713429     0.08700
H363        H  0.01705450  0.35886081  0.09639359     0.07800
N364        N  0.94104650  0.24282779  0.10875533    -0.36100
N365        N  0.95362653  0.22917118  0.11852640    -0.28200
C366        C  0.93859322  0.20827426  0.12227466    -0.03500
C367        C  0.91540378  0.20869502  0.11445808     0.05100
C368        C  0.91776883  0.23086444  0.10595600     0.03200
H369        H  0.94410726  0.19401539  0.13021740     0.08300
H370        H  0.90327260  0.23834192  0.09859789     0.07200
N371        N  0.43168193  0.25076451  0.13802780    -0.27200
N372        N  0.42053142  0.22867794  0.13332717    -0.35100
C373        C  0.39785587  0.22449231  0.14044431     0.01100
C374        C  0.39447763  0.24503338  0.15002585     0.07100
C375        C  0.41634959  0.26130025  0.14812403    -0.06000
H376        H  0.38487906  0.20764293  0.13879160     0.07800
H377        H  0.42126484  0.27910575  0.15394466     0.09000
Cu378      Cu  0.43716282  0.20504273  0.11761909     0.44200
Cu379      Cu  0.46779256  0.26539818  0.13106170     0.42000
Cu380      Cu  0.50228852  0.22762509  0.10528601     0.43900
N381        N  0.45920810  0.18582833  0.10211031    -0.34600
N382        N  0.48284870  0.19402134  0.09797570    -0.28900
C383        C  0.49160710  0.17802711  0.08772661    -0.05000
C384        C  0.47263404  0.15865569  0.08508454     0.07200
C385        C  0.45233186  0.16428969  0.09449486     0.01000
H386        H  0.51034187  0.18089198  0.08246141     0.08700
H387        H  0.43365494  0.15392970  0.09557825     0.07800
N388        N  0.51622069  0.26378259  0.11270810    -0.36100
N389        N  0.50334712  0.27761311  0.12227916    -0.28200
C390        C  0.51602859  0.30074061  0.12442679    -0.03500
C391        C  0.53805312  0.30180012  0.11570224     0.05100
C392        C  0.53748866  0.27780146  0.10845380     0.03200
H393        H  0.50909145  0.31585519  0.13159151     0.08300
H394        H  0.55093133  0.27126904  0.10033824     0.07200
O395        O  0.19567327  0.28640878  0.23338306    -0.72900
O396        O  0.25479415  0.28790820  0.26100250    -0.73900
O397        O  0.25188924  0.28569434  0.23128831    -0.62500
O398        O  0.19854404  0.28750851  0.26333093    -0.70900
O399        O  0.19932974  0.24350097  0.26359466    -0.70400
O400        O  0.25147623  0.24170590  0.23228103    -0.61700
O401        O  0.25561179  0.24391810  0.26195082    -0.74200
O402        O  0.19548721  0.24237089  0.23373114    -0.73000
Cu403      Cu  0.22518128  0.28841777  0.24724826     1.04600
Cu404      Cu  0.22541331  0.24137542  0.24793411     1.04300
C405        C  0.18654454  0.26433026  0.22887275     0.93300
C406        C  0.26476024  0.26650909  0.26584859     0.92500
C407        C  0.25995785  0.26311689  0.22672282     0.84600
C408        C  0.19076674  0.26542174  0.26859855     0.90900
N409        N  0.03057525  0.26522858  0.36382706    -0.27200
N410        N  0.03786343  0.24062921  0.36678282    -0.35100
C411        C  0.05745069  0.23357096  0.35788774     0.01100
C412        C  0.06271685  0.25482929  0.34896781     0.07100
C413        C  0.04514526  0.27443215  0.35313500    -0.06000
H414        H  0.06718670  0.21442277  0.35797650     0.07800
H415        H  0.04255914  0.29390350  0.34856908     0.09000
Cu416      Cu  0.02033053  0.21833190  0.38293711     0.44200
Cu417      Cu  0.00025751  0.28559925  0.37357486     0.42000
Cu418      Cu  0.96491920  0.25166965  0.40041725     0.43900
N419        N  0.99984428  0.20264416  0.40023649    -0.34600
N420        N  0.98037948  0.21530485  0.40672578    -0.28900
C421        C  0.97230245  0.20077471  0.41774427    -0.05000
C422        C  0.98707726  0.17760057  0.41821828     0.07200
C423        C  0.00429741  0.17944455  0.40690870     0.01000
H424        H  0.95654643  0.20655351  0.42480197     0.08700
H425        H  0.01935433  0.16520594  0.40392691     0.07800
N426        N  0.95295593  0.28806704  0.39235259    -0.36100
N427        N  0.96641751  0.30086487  0.38263310    -0.28200
C428        C  0.95355198  0.32339800  0.37931733    -0.03500
C429        C  0.93066335  0.32488094  0.38730582     0.05100
C430        C  0.93103724  0.30206890  0.39547296     0.03200
H431        H  0.95999236  0.33712443  0.37131597     0.08300
H432        H  0.91644117  0.29589894  0.40308631     0.07200
N433        N  0.44947104  0.27848862  0.34734369    -0.27200
N434        N  0.43965753  0.30163889  0.35135127    -0.35100
C435        C  0.41733288  0.30645971  0.34406583     0.01100
C436        C  0.41276751  0.28518989  0.33511889     0.07100
C437        C  0.43355243  0.26782511  0.33752464    -0.06000
H438        H  0.40514351  0.32398548  0.34535863     0.07800
H439        H  0.43717599  0.24903032  0.33234600     0.09000
Cu440      Cu  0.45646561  0.32486560  0.36702514     0.44200
Cu441      Cu  0.48427283  0.26254978  0.35515032     0.42000
Cu442      Cu  0.51698440  0.29799170  0.38282826     0.43900
N443        N  0.47531909  0.34142502  0.38431400    -0.34600
N444        N  0.49717935  0.33166009  0.38997731    -0.28900
C445        C  0.50338837  0.34607105  0.40137986    -0.05000
C446        C  0.48452386  0.36589527  0.40308506     0.07200
C447        C  0.46703380  0.36226954  0.39201230     0.01000
H448        H  0.51999797  0.34173219  0.40817089     0.08700
H449        H  0.44933485  0.37363546  0.38977134     0.07800
N450        N  0.53144563  0.26260441  0.37449735    -0.36100
N451        N  0.51919359  0.24974182  0.36431141    -0.28200
C452        C  0.53256068  0.22734212  0.36137430    -0.03500
C453        C  0.55444282  0.22574303  0.37016969     0.05100
C454        C  0.55303928  0.24862372  0.37834417     0.03200
H455        H  0.52648612  0.21326743  0.35342915     0.08300
H456        H  0.56633979  0.25450604  0.38668143     0.07200
C457        C  0.95802509  0.00890709  0.48691204     0.02300
C458        C  0.97560870  0.03065545  0.48891362     0.02300
C459        C  0.99222425  0.03114631  0.50077709    -0.18200
C460        C  0.99212293  0.01025351  0.51052347     0.02300
C461        C  0.97449859  0.98865317  0.50856340     0.02300
C462        C  0.95791519  0.98805905  0.49671758    -0.18200
H463        H  0.94421864  0.97163053  0.49535979     0.04400
H464        H  0.00601184  0.04748499  0.50217874     0.04400
C465        C  0.47404140  0.49463853  0.48312284     0.02300
C466        C  0.49356447  0.51464619  0.48484798     0.02300
C467        C  0.49242592  0.53166021  0.49646495    -0.18200
C468        C  0.47229156  0.52926179  0.50652239     0.02300
C469        C  0.45292823  0.50900611  0.50490738     0.02300
C470        C  0.45376616  0.49232574  0.49310884    -0.18200
H471        H  0.43914074  0.47664187  0.49201145     0.04400
H472        H  0.50722812  0.54717559  0.49756709     0.04400
C473        C  0.52418422  0.43000777  0.45451540    -0.17800
C474        C  0.52582514  0.41257994  0.44313693    -0.19900
C475        C  0.50368881  0.40816979  0.43451583     0.20700
C476        C  0.47973842  0.42167965  0.43727416    -0.02900
C477        C  0.47813970  0.43945449  0.44870220    -0.05900
C478        C  0.50043006  0.44343425  0.45740530     0.21000
C479        C  0.45424051  0.45310911  0.45145819     0.19200
C480        C  0.43213523  0.44873350  0.44280164    -0.17400
C481        C  0.43367047  0.43096079  0.43152597    -0.19600
C482        C  0.45738264  0.41735386  0.42866241     0.20600
C483        C  0.45909174  0.39937932  0.41741471    -0.32600
C484        C  0.48287284  0.38560780  0.41467030     0.01300
C485        C  0.50510274  0.39034725  0.42324873    -0.24000
C486        C  0.49861780  0.46078542  0.46883891    -0.28500
C487        C  0.47519145  0.47514256  0.47140478     0.07000
C488        C  0.45295499  0.47096898  0.46276596    -0.27200
H489        H  0.54151678  0.43300508  0.46105574     0.11700
H490        H  0.54438067  0.40240531  0.44113194     0.12900
H491        H  0.41363191  0.45903154  0.44476414     0.11900
H492        H  0.41629821  0.42787669  0.42503105     0.11200
H493        H  0.44175076  0.39585949  0.41097122     0.16600
H494        H  0.52364256  0.38022245  0.42118721     0.12500
H495        H  0.51552935  0.46325462  0.47573309     0.15300
H496        H  0.43480353  0.48187857  0.46476975     0.15100
C497        C  0.96919332  0.12612220  0.47657307    -0.17800
C498        C  0.97024240  0.14655493  0.46664738    -0.19900
C499        C  0.97639408  0.14095794  0.45260970     0.20700
C500        C  0.98131828  0.11443939  0.44852480    -0.02900
C501        C  0.97995164  0.09375816  0.45851790    -0.05900
C502        C  0.97408221  0.09967129  0.47263657     0.21000
C503        C  0.98462245  0.06721348  0.45438846     0.19200
C504        C  0.99048172  0.06157049  0.44033281    -0.17400
C505        C  0.99215869  0.08207097  0.43048348    -0.19600
C506        C  0.98778613  0.10858348  0.43447649     0.20600
C507        C  0.98988094  0.12931732  0.42468703    -0.32600
C508        C  0.98495058  0.15580498  0.42865009     0.01300
C509        C  0.97790625  0.16140430  0.44261580    -0.24000
C510        C  0.97317179  0.07904791  0.48254138    -0.28500
C511        C  0.97765476  0.05254195  0.47847683     0.07000
C512        C  0.98344088  0.04680974  0.46438240    -0.27200
H513        H  0.96455973  0.13102651  0.48734604     0.11700
H514        H  0.96640794  0.16679113  0.46997644     0.12900
H515        H  0.99399972  0.04129160  0.43697207     0.11900
H516        H  0.99697175  0.07718327  0.41973207     0.11200
H517        H  0.99499529  0.12480526  0.41392430     0.16600
H518        H  0.97419495  0.18176791  0.44577863     0.12500
H519        H  0.96852483  0.08348596  0.49337538     0.15300
H520        H  0.98704686  0.02640942  0.46123468     0.15100
C521        C  0.11389766  0.30799747  0.31458229    -0.17800
C522        C  0.13171921  0.30963418  0.30336740    -0.19900
C523        C  0.14307290  0.28653636  0.29767374     0.20700
C524        C  0.13641765  0.26156327  0.30343766    -0.02900
C525        C  0.11846886  0.25991451  0.31477750    -0.05900
C526        C  0.10710641  0.28323397  0.32033824     0.21000
C527        C  0.11186288  0.23491826  0.32051198     0.19200
C528        C  0.12326571  0.21182871  0.31487491    -0.17400
C529        C  0.14098080  0.21344858  0.30365317    -0.19600
C530        C  0.14762253  0.23818740  0.29785623     0.20600
C531        C  0.16521793  0.23985843  0.28654568    -0.32600
C532        C  0.17197792  0.26459439  0.28061957     0.01300
C533        C  0.16085552  0.28791970  0.28631601    -0.24000
C534        C  0.08913066  0.28139495  0.33152723    -0.28500
C535        C  0.08227231  0.25651882  0.33730217     0.07000
C536        C  0.09390526  0.23339127  0.33172708    -0.27200
H537        H  0.10537386  0.32613276  0.31874074     0.11700
H538        H  0.13655913  0.32898510  0.29911869     0.12900
H539        H  0.11844123  0.19247721  0.31913028     0.11900
H540        H  0.14945862  0.19530111  0.29947980     0.11200
H541        H  0.17367054  0.22170610  0.28235328     0.16600
H542        H  0.16592174  0.30707959  0.28189558     0.12500
H543        H  0.08067619  0.29946794  0.33576645     0.15300
H544        H  0.08875309  0.21411816  0.33595958     0.15100
C545        C  0.32617218  0.32183281  0.29351256    -0.17800
C546        C  0.34658630  0.32453828  0.30330636    -0.19900
C547        C  0.35832308  0.30198045  0.30927479     0.20700
C548        C  0.34953646  0.27640596  0.30527887    -0.02900
C549        C  0.32878271  0.27367461  0.29544498    -0.05900
C550        C  0.31708950  0.29652824  0.28957800     0.21000
C551        C  0.31970370  0.24814905  0.29152240     0.19200
C552        C  0.33166247  0.22559153  0.29742450    -0.17400
C553        C  0.35238180  0.22829404  0.30711427    -0.19600
C554        C  0.36144745  0.25360446  0.31111427     0.20600
C555        C  0.38217774  0.25655966  0.32083657    -0.32600
C556        C  0.39084949  0.28202829  0.32493485     0.01300
C557        C  0.37873121  0.30460280  0.31914094    -0.24000
C558        C  0.29640775  0.29377869  0.27991981    -0.28500
C559        C  0.28696983  0.26848610  0.27599632     0.07000
C560        C  0.29880693  0.24569578  0.28181954    -0.27200
H561        H  0.31738063  0.33956197  0.28906363     0.11700
H562        H  0.35317807  0.34429496  0.30622686     0.12900
H563        H  0.32499312  0.20584214  0.29454524     0.11900
H564        H  0.36128873  0.21057129  0.31150271     0.11200
H565        H  0.39131171  0.23905522  0.32534198     0.16600
H566        H  0.38551511  0.32427124  0.32211096     0.12500
H567        H  0.28755788  0.31151955  0.27550477     0.15300
H568        H  0.29175245  0.22612343  0.27884504     0.15100
C569        C  0.32350978  0.30395954  0.19328711    -0.17800
C570        C  0.34226345  0.30135058  0.18255785    -0.19900
C571        C  0.34815285  0.27626549  0.17687185     0.20700
C572        C  0.33480454  0.25362352  0.18195680    -0.02900
C573        C  0.31603512  0.25623255  0.19285995    -0.05900
C574        C  0.31037077  0.28152080  0.19857957     0.21000
C575        C  0.30311961  0.23349075  0.19810202     0.19200
C576        C  0.30876322  0.20844110  0.19232773    -0.17400
C577        C  0.32718891  0.20588610  0.18147876    -0.19600
C578        C  0.34039179  0.22831735  0.17625533     0.20600
C579        C  0.35934900  0.22579468  0.16558280    -0.32600
C580        C  0.37322160  0.24815647  0.16066556     0.01300
C581        C  0.36734869  0.27337420  0.16631649    -0.24000
C582        C  0.29185201  0.28387046  0.20954006    -0.28500
C583        C  0.27911902  0.26119128  0.21493882     0.07000
C584        C  0.28488629  0.23610872  0.20907948    -0.27200
H585        H  0.31942851  0.32353186  0.19752007     0.11700
H586        H  0.35227367  0.31896808  0.17875283     0.12900
H587        H  0.29896524  0.19078217  0.19623393     0.11900
H588        H  0.33125428  0.18631307  0.17723884     0.11200
H589        H  0.36384226  0.20626661  0.16141072     0.16600
H590        H  0.37769718  0.29078693  0.16250231     0.12500
H591        H  0.28760231  0.30326667  0.21395865     0.15300
H592        H  0.27514844  0.21846463  0.21305818     0.15100
C593        C  0.11404823  0.21817176  0.18213809    -0.17800
C594        C  0.13162684  0.21752864  0.19348713    -0.19900
C595        C  0.13998594  0.24120456  0.19992636     0.20700
C596        C  0.13066235  0.26579339  0.19479890    -0.02900
C597        C  0.11306552  0.26645212  0.18328717    -0.05900
C598        C  0.10457987  0.24250845  0.17699453     0.21000
C599        C  0.10389561  0.29105812  0.17812255     0.19200
C600        C  0.11233517  0.31475122  0.18450490    -0.17400
C601        C  0.12968062  0.31409588  0.19593357    -0.19600
C602        C  0.13894450  0.28973770  0.20114691     0.20600
C603        C  0.15656013  0.28895245  0.21250127    -0.32600
C604        C  0.16625561  0.26454989  0.21760251     0.01300
C605        C  0.15768354  0.24073253  0.21130071    -0.24000
C606        C  0.08662242  0.24331737  0.16575445    -0.28500
C607        C  0.07723316  0.26776871  0.16061935     0.07000
C608        C  0.08623014  0.29155513  0.16677076    -0.27200
H609        H  0.10779516  0.19960393  0.17740375     0.11700
H610        H  0.13863928  0.19848235  0.19725208     0.12900
H611        H  0.10545567  0.33380335  0.18068141     0.11900
H612        H  0.13589952  0.33266754  0.20068120     0.11200
H613        H  0.16304070  0.30746718  0.21722315     0.16600
H614        H  0.16511336  0.22184739  0.21508057     0.12500
H615        H  0.08001426  0.22490221  0.16098500     0.15300
H616        H  0.07894593  0.31048190  0.16298734     0.15100
C617        C  0.98891849  0.89503906  0.52227575    -0.17800
C618        C  0.98909689  0.87508232  0.53244755    -0.19900
C619        C  0.98078960  0.88055787  0.54617065     0.20700
C620        C  0.97242233  0.90644943  0.54973521    -0.02900
C621        C  0.97253097  0.92668907  0.53949918    -0.05900
C622        C  0.98059836  0.92087019  0.52566845     0.21000
C623        C  0.96453637  0.95269791  0.54309675     0.19200
C624        C  0.95648422  0.95821392  0.55686525    -0.17400
C625        C  0.95600796  0.93806249  0.56695461    -0.19600
C626        C  0.96383898  0.91208846  0.56349383     0.20600
C627        C  0.96320744  0.89165366  0.57351170    -0.32600
C628        C  0.97161818  0.86581887  0.57001520     0.01300
C629        C  0.98056141  0.86053057  0.55634860    -0.24000
C630        C  0.98035101  0.94100479  0.51550642    -0.28500
C631        C  0.97269389  0.96698279  0.51906816     0.07000
C632        C  0.96480721  0.97270520  0.53287002    -0.27200
H633        H  0.99530220  0.89026055  0.51174080     0.11700
H634        H  0.99559581  0.85529435  0.52955317     0.12900
H635        H  0.95037591  0.97809989  0.55981136     0.11900
H636        H  0.94950082  0.94280123  0.57747244     0.11200
H637        H  0.95652275  0.89591842  0.58405871     0.16600
H638        H  0.98681674  0.84062890  0.55351754     0.12500
H639        H  0.98675130  0.93671504  0.50490834     0.15300
H640        H  0.95901554  0.99280779  0.53561123     0.15100
C641        C  0.51803713  0.57584641  0.54535613    -0.17800
C642        C  0.51764644  0.59356414  0.55666768    -0.19900
C643        C  0.49399695  0.60630957  0.56056436     0.20700
C644        C  0.47050102  0.60107210  0.55301092    -0.02900
C645        C  0.47094721  0.58340870  0.54150571    -0.05900
C646        C  0.49483158  0.57071606  0.53768119     0.21000
C647        C  0.44755180  0.57863935  0.53377237     0.19200
C648        C  0.42382425  0.59105356  0.53778226    -0.17400
C649        C  0.42332624  0.60832204  0.54927198    -0.19600
C650        C  0.44659432  0.61363178  0.55687275     0.20600
C651        C  0.44638149  0.63149521  0.56816389    -0.32600
C652        C  0.46980896  0.63729937  0.57563882     0.01300
C653        C  0.49351208  0.62436599  0.57179153    -0.24000
C654        C  0.49507454  0.55310536  0.52627314    -0.28500
C655        C  0.47185106  0.54830964  0.51848423     0.07000
C656        C  0.44829491  0.56159628  0.52215386    -0.27200
H657        H  0.53653991  0.56625840  0.54256317     0.11700
H658        H  0.53587094  0.59732555  0.56236299     0.12900
H659        H  0.40564965  0.58743489  0.53201590     0.11900
H660        H  0.40477188  0.61774192  0.55212921     0.11200
H661        H  0.42787578  0.64095277  0.57099934     0.16600
H662        H  0.51174449  0.62847758  0.57738005     0.12500
H663        H  0.51328574  0.54291844  0.52350616     0.15300
H664        H  0.43048920  0.55853832  0.51598967     0.15100
C665        C  0.83895686  0.80923792  0.68079579    -0.17800
C666        C  0.82020429  0.80905887  0.69154484    -0.19900
C667        C  0.81096175  0.78491478  0.69700432     0.20700
C668        C  0.82073321  0.76068852  0.69162744    -0.02900
C669        C  0.83969676  0.76087263  0.68077970    -0.05900
C670        C  0.84875136  0.78527798  0.67533164     0.21000
C671        C  0.84952488  0.73668579  0.67537138     0.19200
C672        C  0.84028180  0.71253752  0.68086539    -0.17400
C673        C  0.82143343  0.71235209  0.69161313    -0.19600
C674        C  0.81153714  0.73630935  0.69706300     0.20600
C675        C  0.79262724  0.73633766  0.70783913    -0.32600
C676        C  0.78280822  0.76044730  0.71325045     0.01300
C677        C  0.79211199  0.78462837  0.70774584    -0.24000
C678        C  0.86736762  0.78536573  0.66447680    -0.28500
C679        C  0.87716879  0.76140012  0.65892895     0.07000
C680        C  0.86827213  0.73709983  0.66451377    -0.27200
H681        H  0.84575188  0.82813709  0.67672635     0.11700
H682        H  0.81289530  0.82782255  0.69557776     0.12900
H683        H  0.84759464  0.69377958  0.67682976     0.11900
H684        H  0.81459197  0.69345716  0.69566283     0.11200
H685        H  0.78556957  0.71759679  0.71199437     0.16600
H686        H  0.78470106  0.80333092  0.71181967     0.12500
H687        H  0.87432527  0.80421329  0.66044097     0.15300
H688        H  0.87555240  0.71849541  0.66027983     0.15100
C689        C  0.82945298  0.80757846  0.81398881    -0.17800
C690        C  0.81369273  0.80870154  0.80192561    -0.19900
C691        C  0.80754555  0.78542391  0.79446445     0.20700
C692        C  0.81757913  0.76079786  0.79915990    -0.02900
C693        C  0.83329147  0.75963594  0.81138273    -0.05900
C694        C  0.83924534  0.78314236  0.81883505     0.21000
C695        C  0.84285576  0.73491447  0.81619517     0.19200
C696        C  0.83707496  0.71168633  0.80863614    -0.17400
C697        C  0.82160570  0.71284873  0.79650808    -0.19600
C698        C  0.81159907  0.73724924  0.79176898     0.20600
C699        C  0.79520028  0.73837097  0.77995477    -0.32600
C700        C  0.78438576  0.76268155  0.77543245     0.01300
C701        C  0.79107181  0.78623048  0.78259354    -0.24000
C702        C  0.85484724  0.78176126  0.83099730    -0.28500
C703        C  0.86424510  0.75713868  0.83590545     0.07000
C704        C  0.85806367  0.73381682  0.82846598    -0.27200
H705        H  0.83385098  0.82582053  0.81958120     0.11700
H706        H  0.80617195  0.82777266  0.79847982     0.12900
H707        H  0.84438992  0.69258026  0.81215258     0.11900
H708        H  0.81720743  0.69460064  0.79091974     0.11200
H709        H  0.79031375  0.72010362  0.77448682     0.16600
H710        H  0.78281694  0.80504513  0.77920867     0.12500
H711        H  0.85948788  0.79981641  0.83671062     0.15300
H712        H  0.86558090  0.71482877  0.83203978     0.15100
C713        C  0.64728942  0.81296186  0.80298329    -0.17800
C714        C  0.62845056  0.81434394  0.81370118    -0.19900
C715        C  0.61243469  0.79229146  0.81677909     0.20700
C716        C  0.61568899  0.76851495  0.80910270    -0.02900
C717        C  0.63475848  0.76707495  0.79833643    -0.05900
C718        C  0.65045620  0.78948579  0.79519150     0.21000
C719        C  0.63793873  0.74327706  0.79064998     0.19200
C720        C  0.62213518  0.72115578  0.79382158    -0.17400
C721        C  0.60316781  0.72262597  0.80444699    -0.19600
C722        C  0.59974128  0.74622418  0.81209242     0.20600
C723        C  0.58048893  0.74790731  0.82260086    -0.32600
C724        C  0.57677012  0.77161528  0.83019892     0.01300
C725        C  0.59304445  0.79367752  0.82728381    -0.24000
C726        C  0.66889501  0.78807595  0.78424733    -0.28500
C727        C  0.67205761  0.76446055  0.77649405     0.07000
C728        C  0.65669876  0.74207015  0.77985489    -0.27200
H729        H  0.65927342  0.83031146  0.80072988     0.11700
H730        H  0.62626347  0.83273831  0.81951077     0.12900
H731        H  0.62433438  0.70274540  0.78802538     0.11900
H732        H  0.59108212  0.70532316  0.80664530     0.11200
H733        H  0.56847315  0.73060350  0.82481772     0.16600
H734        H  0.59042309  0.81210723  0.83298878     0.12500
H735        H  0.68087697  0.80535063  0.78180615     0.15300
H736        H  0.65902759  0.72382797  0.77391504     0.15100
C737        C  0.61985368  0.70291120  0.68107965    -0.17800
C738        C  0.63948280  0.70557796  0.69132822    -0.19900
C739        C  0.64390711  0.73019955  0.69786078     0.20700
C740        C  0.62846319  0.75239151  0.69405555    -0.02900
C741        C  0.60848469  0.74964271  0.68378360    -0.05900
C742        C  0.60423736  0.72479022  0.67724722     0.21000
C743        C  0.59269513  0.77169258  0.68011562     0.19200
C744        C  0.59722925  0.79634382  0.68662042    -0.17400
C745        C  0.61720782  0.79912628  0.69671580    -0.19600
C746        C  0.63290873  0.77727151  0.70053988     0.20600
C747        C  0.65287515  0.77978544  0.71075633    -0.32600
C748        C  0.66817180  0.75762403  0.71467872     0.01300
C749        C  0.66349607  0.73293820  0.70815179    -0.24000
C750        C  0.58429027  0.72215998  0.66709677    -0.28500
C751        C  0.56818082  0.74391777  0.66354409     0.07000
C752        C  0.57256033  0.76865040  0.67007891    -0.27200
H753        H  0.61681198  0.68369102  0.67618949     0.11700
H754        H  0.65122402  0.68836092  0.69414640     0.12900
H755        H  0.58529379  0.81348633  0.68390825     0.11900
H756        H  0.62030034  0.81836116  0.70157889     0.11200
H757        H  0.65628091  0.79885283  0.71575450     0.16600
H758        H  0.67526230  0.71575084  0.71101437     0.12500
H759        H  0.58088106  0.70297544  0.66223537     0.15300
H760        H  0.56039577  0.78559710  0.66730585     0.15100
C761        C  0.02391007  0.43035897  0.06108643    -0.17800
C762        C  0.02388038  0.45053852  0.05100143    -0.19900
C763        C  0.00240602  0.45337216  0.04175173     0.20700
C764        C  0.98060729  0.43583999  0.04280808    -0.02900
C765        C  0.98065328  0.41547421  0.05298143    -0.05900
C766        C  0.00246583  0.41262727  0.06211274     0.21000
C767        C  0.95897159  0.39782933  0.05391453     0.19200
C768        C  0.93731545  0.40086553  0.04480892    -0.17400
C769        C  0.93726173  0.42100060  0.03474273    -0.19600
C770        C  0.95885236  0.43846305  0.03360950     0.20600
C771        C  0.95910167  0.45838850  0.02338517    -0.32600
C772        C  0.98064554  0.47601725  0.02228534     0.01300
C773        C  0.00233356  0.47331838  0.03144678    -0.24000
C774        C  0.00259315  0.39194978  0.07199285    -0.28500
C775        C  0.98120570  0.37393739  0.07287622     0.07000
C776        C  0.95936875  0.37729801  0.06383219    -0.27200
H777        H  0.04081371  0.42851607  0.06803288     0.11700
H778        H  0.04074000  0.46384742  0.05038718     0.12900
H779        H  0.92046615  0.38753657  0.04540879     0.11900
H780        H  0.92036490  0.42283666  0.02778978     0.11200
H781        H  0.94254485  0.46017427  0.01619324     0.16600
H782        H  0.01896727  0.48688276  0.03059998     0.12500
H783        H  0.01960022  0.38975391  0.07881530     0.15300
H784        H  0.94258162  0.36393618  0.06441720     0.15100
C785        C  0.01185360  0.62534815  0.95018727    -0.17800
C786        C  0.01366143  0.60710275  0.96115086    -0.19900
C787        C  0.99340416  0.58848337  0.96335760     0.20700
C788        C  0.97109670  0.58817934  0.95439555    -0.02900
C789        C  0.96929101  0.60663566  0.94329137    -0.05900
C790        C  0.98974654  0.62530736  0.94123960     0.21000
C791        C  0.94697866  0.60656687  0.93434535     0.19200
C792        C  0.92677304  0.58778349  0.93653556    -0.17400
C793        C  0.92853146  0.56949296  0.94755701    -0.19600
C794        C  0.95055123  0.56959151  0.95658772     0.20600
C795        C  0.95243972  0.55151313  0.96776700    -0.32600
C796        C  0.97476355  0.55163282  0.97663825     0.01300
C797        C  0.99507845  0.57023012  0.97438947    -0.24000
C798        C  0.98768571  0.64392766  0.93042062    -0.28500
C799        C  0.96528406  0.64461910  0.92157842     0.07000
C800        C  0.94511905  0.62551259  0.92353339    -0.27200
H801        H  0.02773246  0.63960288  0.94874449     0.11700
H802        H  0.03090926  0.60758776  0.96792766     0.12900
H803        H  0.90949416  0.58735637  0.92978227     0.11900
H804        H  0.91259975  0.55532274  0.94904947     0.11200
H805        H  0.93675195  0.53715290  0.96950631     0.16600
H806        H  0.01213713  0.57052188  0.98131499     0.12500
H807        H  0.00355295  0.65816879  0.92915787     0.15300
H808        H  0.92780286  0.62553794  0.91682053     0.15100
C809        C  0.13316208  0.63857483  0.58951892    -0.17800
C810        C  0.11347437  0.65815101  0.58931164    -0.19900
C811        C  0.09392914  0.65887312  0.59975466     0.20700
C812        C  0.09451282  0.64000011  0.61064934    -0.02900
C813        C  0.11436188  0.62027955  0.61086040    -0.05900
C814        C  0.13362113  0.61942129  0.60017579     0.21000
C815        C  0.11468750  0.60121511  0.62165579     0.19200
C816        C  0.09552203  0.60228366  0.63227518    -0.17400
C817        C  0.07584947  0.62181800  0.63206542    -0.19600
C818        C  0.07503923  0.64056788  0.62122989     0.20600
C819        C  0.05487349  0.65963686  0.62071352    -0.32600
C820        C  0.05374267  0.67817159  0.60972771     0.01300
C821        C  0.07358219  0.67785396  0.59937440    -0.24000
C822        C  0.15279077  0.59924949  0.60023640    -0.28500
C823        C  0.15301831  0.57986965  0.61085171     0.07000
C824        C  0.13397962  0.58122834  0.62159160    -0.27200
H825        H  0.14788108  0.63825913  0.58126295     0.11700
H826        H  0.11336885  0.67255707  0.58089889     0.12900
H827        H  0.09558678  0.58784105  0.64067222     0.11900
H828        H  0.06108727  0.62208110  0.64030004     0.11200
H829        H  0.04007215  0.65990854  0.62891019     0.16600
H830        H  0.07296397  0.69196639  0.59084109     0.12500
H831        H  0.16725261  0.59858075  0.59188201     0.15300
H832        H  0.13395859  0.56674574  0.62994241     0.15100
C833        C  0.33951605  0.50348984  0.52957014    -0.17800
C834        C  0.35883051  0.50515871  0.51910914    -0.19900
C835        C  0.38583747  0.50307373  0.52250389     0.20700
C836        C  0.39346226  0.49903585  0.53657164    -0.02900
C837        C  0.37396685  0.49713367  0.54710886    -0.05900
C838        C  0.34689045  0.49957183  0.54358644     0.21000
C839        C  0.38158396  0.49298608  0.56117022     0.19200
C840        C  0.40859936  0.49107145  0.56457338    -0.17400
C841        C  0.42793374  0.49319311  0.55414714    -0.19600
C842        C  0.42056756  0.49710957  0.54013550     0.20600
C843        C  0.43983324  0.49947986  0.52965460    -0.32600
C844        C  0.43237996  0.50412812  0.51569313     0.01300
C845        C  0.40537090  0.50540700  0.51213219    -0.24000
C846        C  0.32768609  0.49823747  0.55415527    -0.28500
C847        C  0.33513512  0.49398797  0.56815979     0.07000
C848        C  0.36206976  0.49108161  0.57158548    -0.27200
H849        H  0.31879748  0.50534901  0.52670172     0.11700
H850        H  0.35265097  0.50829431  0.50837284     0.12900
H851        H  0.41478772  0.48802852  0.57531629     0.11900
H852        H  0.44867258  0.49179049  0.55704641     0.11200
H853        H  0.46069650  0.49825538  0.53235524     0.16600
H854        H  0.39967145  0.50906105  0.50135966     0.12500
H855        H  0.30688549  0.50029516  0.55147320     0.15300
H856        H  0.36784932  0.48806831  0.58240059     0.15100
C857        C  0.32111323  0.83484286  0.60342394    -0.17800
C858        C  0.30199611  0.85499347  0.60328914    -0.19900
C859        C  0.29816342  0.87117642  0.61510061     0.20700
C860        C  0.31384596  0.86708780  0.62715385    -0.02900
C861        C  0.33312820  0.84672923  0.62729510    -0.05900
C862        C  0.33672642  0.83051259  0.61537489     0.21000
C863        C  0.34885786  0.84269255  0.63933223     0.19200
C864        C  0.34506925  0.85890084  0.65113904    -0.17400
C865        C  0.32597182  0.87907358  0.65099765    -0.19600
C866        C  0.31032847  0.88337728  0.63904892     0.20600
C867        C  0.29128140  0.90370759  0.63878033    -0.32600
C868        C  0.27549695  0.90788023  0.62681853     0.01300
C869        C  0.27900488  0.89142237  0.61504297    -0.24000
C870        C  0.35600210  0.81040316  0.61556515    -0.28500
C871        C  0.37198234  0.80645449  0.62745978     0.07000
C872        C  0.36820176  0.82264855  0.63932112    -0.27200
H873        H  0.32368267  0.82262806  0.59416773     0.11700
H874        H  0.29018530  0.85791459  0.59393544     0.12900
H875        H  0.35695554  0.85604423  0.66047287     0.11900
H876        H  0.32349070  0.89137254  0.66022877     0.11200
H877        H  0.28858108  0.91609824  0.64795876     0.16600
H878        H  0.26715203  0.89463649  0.60573140     0.12500
H879        H  0.35893808  0.79825272  0.60631891     0.15300
H880        H  0.38024716  0.81961900  0.64858244     0.15100
C881        C  0.06499246  0.96656887  0.53622235    -0.17800
C882        C  0.08213812  0.96512739  0.54770678    -0.19900
C883        C  0.08176080  0.98490780  0.55808913     0.20700
C884        C  0.06383131  0.00629983  0.55693457    -0.02900
C885        C  0.04648037  0.00777450  0.54531337    -0.05900
C886        C  0.04716028  0.98781469  0.53491439     0.21000
C887        C  0.02851432  0.02918420  0.54409300     0.19200
C888        C  0.02803566  0.04883428  0.55455687    -0.17400
C889        C  0.04527625  0.04738530  0.56606207    -0.19600
C890        C  0.06332997  0.02624477  0.56733552     0.20600
C891        C  0.08103759  0.02481789  0.57873035    -0.32600
C892        C  0.09935108  0.00370107  0.57986496     0.01300
C893        C  0.09923540  0.98372083  0.56950285    -0.24000
C894        C  0.02988562  0.98931220  0.52343654    -0.28500
C895        C  0.01163011  0.01029955  0.52223891     0.07000
C896        C  0.01124470  0.03037793  0.53250915    -0.27200
H897        H  0.06568006  0.95104000  0.52835154     0.11700
H898        H  0.09577932  0.94854650  0.54844465     0.12900
H899        H  0.01433954  0.06536906  0.55383586     0.11900
H900        H  0.04454961  0.06287843  0.57394762     0.11200
H901        H  0.08059904  0.04028965  0.58661706     0.16600
H902        H  0.11304380  0.96731304  0.57008816     0.12500
H903        H  0.03034545  0.97394202  0.51546389     0.15300
H904        H  0.99710181  0.04651576  0.53162059     0.15100
C905        C  0.18541936  0.36797685  0.68088777    -0.17800
C906        C  0.18332606  0.34978682  0.69189476    -0.19900
C907        C  0.20615459  0.34046939  0.69872569     0.20700
C908        C  0.23135778  0.34941201  0.69431062    -0.02900
C909        C  0.23347742  0.36767440  0.68317866    -0.05900
C910        C  0.21038034  0.37711533  0.67650460     0.21000
C911        C  0.25870128  0.37658360  0.67879030     0.19200
C912        C  0.28154095  0.36718001  0.68555282    -0.17400
C913        C  0.27944070  0.34915206  0.69660038    -0.19600
C914        C  0.25446866  0.34020776  0.70104913     0.20600
C915        C  0.25226543  0.32224382  0.71214105    -0.32600
C916        C  0.22726239  0.31322889  0.71667736     0.01300
C917        C  0.20425421  0.32243540  0.70989550    -0.24000
C918        C  0.21264780  0.39564536  0.66563039    -0.28500
C919        C  0.23771777  0.40473565  0.66125683     0.07000
C920        C  0.26065597  0.39490877  0.66780571    -0.27200
H921        H  0.16749043  0.37498904  0.67583740     0.11700
H922        H  0.16383127  0.34310549  0.69511059     0.12900
H923        H  0.30103730  0.37383634  0.68232654     0.11900
H924        H  0.29737173  0.34222341  0.70168407     0.11200
H925        H  0.27016698  0.31531102  0.71726154     0.16600
H926        H  0.18492025  0.31554179  0.71326883     0.12500
H927        H  0.19485631  0.40284990  0.66052254     0.15300
H928        H  0.28001550  0.40195692  0.66457827     0.15100
C929        C  0.26293987  0.15432459  0.69822733    -0.17800
C930        C  0.26042904  0.13454882  0.68797851    -0.19900
C931        C  0.23527002  0.12669381  0.68318824     0.20700
C932        C  0.21240420  0.13886181  0.68878989    -0.02900
C933        C  0.21493324  0.15865027  0.69920757    -0.05900
C934        C  0.24033499  0.16650358  0.70391433     0.21000
C935        C  0.19204233  0.17061701  0.70486712     0.19200
C936        C  0.16686935  0.16273913  0.70011868    -0.17400
C937        C  0.16437150  0.14327516  0.68973621    -0.19600
C938        C  0.18699770  0.13128725  0.68398055     0.20600
C939        C  0.18463794  0.11179549  0.67354422    -0.32600
C940        C  0.20729769  0.09938672  0.66801242     0.01300
C941        C  0.23255671  0.10688409  0.67291376    -0.24000
C942        C  0.24267805  0.18645810  0.71416183    -0.28500
C943        C  0.21992513  0.19860130  0.71978692     0.07000
C944        C  0.19468375  0.19038473  0.71511270    -0.27200
H945        H  0.28258557  0.16008554  0.70171241     0.11700
H946        H  0.27818925  0.12542432  0.68377516     0.12900
H947        H  0.14909958  0.17174229  0.70438560     0.11900
H948        H  0.14472862  0.13761088  0.68619871     0.11200
H949        H  0.16510261  0.10588316  0.66994832     0.16600
H950        H  0.25011780  0.09750835  0.66862253     0.12500
H951        H  0.26218695  0.19259374  0.71769741     0.15300
H952        H  0.17696105  0.19953758  0.71935827     0.15100
C953        C  0.36003889  0.60391965  0.86234448    -0.17800
C954        C  0.38036101  0.62279051  0.86211110    -0.19900
C955        C  0.38058665  0.64377957  0.87180031     0.20700
C956        C  0.36035409  0.64557187  0.88194882    -0.02900
C957        C  0.33983563  0.62651932  0.88218656    -0.05900
C958        C  0.33963878  0.60573258  0.87227739     0.21000
C959        C  0.31939729  0.62844633  0.89221984     0.19200
C960        C  0.31986308  0.64922939  0.90204225    -0.17400
C961        C  0.34021850  0.66813150  0.90180661    -0.19600
C962        C  0.36043179  0.66656438  0.89174099     0.20600
C963        C  0.38048202  0.68584052  0.89117746    -0.32600
C964        C  0.40044948  0.68458524  0.88088167     0.01300
C965        C  0.40047571  0.66320598  0.87135556    -0.24000
C966        C  0.31894906  0.58721569  0.87235849    -0.28500
C967        C  0.29829960  0.58900794  0.88222873     0.07000
C968        C  0.29878398  0.60968373  0.89218771    -0.27200
H969        H  0.36017737  0.58799904  0.85468460     0.11700
H970        H  0.39578279  0.62109840  0.85426844     0.12900
H971        H  0.30437858  0.65097996  0.90984687     0.11900
H972        H  0.34002520  0.68411560  0.90942628     0.11200
H973        H  0.38018729  0.70193250  0.89870086     0.16600
H974        H  0.41566265  0.66175585  0.86340029     0.12500
H975        H  0.31898085  0.57160595  0.86455833     0.15300
H976        H  0.28319463  0.61129801  0.89992395     0.15100
C977        C  0.11040663  0.52019095  0.96318017    -0.17800
C978        C  0.09138849  0.52167336  0.97379585    -0.19900
C979        C  0.06471205  0.51583209  0.97093670     0.20700
C980        C  0.05713455  0.50815832  0.95727159    -0.02900
C981        C  0.07639046  0.50629884  0.94660768    -0.05900
C982        C  0.10308732  0.51263423  0.94956099     0.21000
C983        C  0.06889303  0.49833192  0.93297749     0.19200
C984        C  0.04220224  0.49246066  0.93013160    -0.17400
C985        C  0.02305051  0.49463271  0.94066013    -0.19600
C986        C  0.03031098  0.50246670  0.95424143     0.20600
C987        C  0.01125381  0.50472182  0.96484813    -0.32600
C988        C  0.01873824  0.51233283  0.97844527     0.01300
C989        C  0.04546185  0.51763735  0.98147334    -0.24000
C990        C  0.12193809  0.51160264  0.93880829    -0.28500
C991        C  0.11459215  0.50384988  0.92519531     0.07000
C992        C  0.08814496  0.49678557  0.92239774    -0.27200
H993        H  0.13084830  0.52503952  0.96561429     0.11700
H994        H  0.09751373  0.52758635  0.98422286     0.12900
H995        H  0.03609791  0.48639154  0.91972567     0.11900
H996        H  0.00254329  0.49017119  0.93817971     0.11200
H997        H  0.99060076  0.50041436  0.96259920     0.16600
H998        H  0.05110952  0.52353115  0.99198778     0.12500
H999        H  0.14239546  0.51676766  0.94104094     0.15300
H1000       H  0.08240876  0.49096822  0.91188816     0.15100
C1001       C  0.17368244  0.35922777  0.79683492    -0.17800
C1002       C  0.17167521  0.37748640  0.80780528    -0.19900
C1003       C  0.19447278  0.38611824  0.81489709     0.20700
C1004       C  0.21962208  0.37653198  0.81078070    -0.02900
C1005       C  0.22163672  0.35792038  0.79974596    -0.05900
C1006       C  0.19850692  0.34920467  0.79282661     0.21000
C1007       C  0.24667414  0.34783335  0.79574948     0.19200
C1008       C  0.26951875  0.35687391  0.80272281    -0.17400
C1009       C  0.26754553  0.37552777  0.81359851    -0.19600
C1010       C  0.24267993  0.38538052  0.81774755     0.20600
C1011       C  0.24039310  0.40382171  0.82875599    -0.32600
C1012       C  0.21530336  0.41317095  0.83300930     0.01300
C1013       C  0.19248236  0.40415448  0.82603471    -0.24000
C1014       C  0.20043558  0.33027075  0.78215791    -0.28500
C1015       C  0.22513443  0.31948839  0.77828393     0.07000
C1016       C  0.24829481  0.32863854  0.78501641    -0.27200
H1017       H  0.15575360  0.35271954  0.79157474     0.11700
H1018       H  0.15225592  0.38476263  0.81079035     0.12900
H1019       H  0.28891216  0.34942602  0.79981060     0.11900
H1020       H  0.28546871  0.38212113  0.81882936     0.11200
H1021       H  0.25809694  0.41059781  0.83413310     0.16600
H1022       H  0.17314979  0.41154702  0.82910306     0.12500
H1023       H  0.18243410  0.32358827  0.77701937     0.15300
H1024       H  0.26742636  0.32052365  0.78209990     0.15100
C1025       C  0.10499958  0.85082683  0.90169707    -0.17800
C1026       C  0.12494513  0.87014935  0.90173095    -0.19900
C1027       C  0.12718139  0.88818260  0.89060850     0.20700
C1028       C  0.10924163  0.88662690  0.87929392    -0.02900
C1029       C  0.08898787  0.86722122  0.87929619    -0.05900
C1030       C  0.08686907  0.84927966  0.89057136     0.21000
C1031       C  0.07071359  0.86596906  0.86810745     0.19200
C1032       C  0.07320441  0.88374955  0.85688409    -0.17400
C1033       C  0.09339172  0.90286225  0.85684135    -0.19600
C1034       C  0.11138034  0.90458847  0.86804552     0.20600
C1035       C  0.13133403  0.92406548  0.86823090    -0.32600
C1036       C  0.14924041  0.92598429  0.87954903     0.01300
C1037       C  0.14696768  0.90779984  0.89067027    -0.24000
C1038       C  0.06645269  0.83034866  0.89063324    -0.28500
C1039       C  0.04777916  0.82938063  0.87970272     0.07000
C1040       C  0.05012807  0.84716837  0.86842579    -0.27200
H1041       H  0.10363430  0.83720511  0.91043623     0.11700
H1042       H  0.13858950  0.87103962  0.91049191     0.12900
H1043       H  0.05942246  0.88299743  0.84817868     0.11900
H1044       H  0.09479375  0.91645380  0.84809254     0.11200
H1045       H  0.13269129  0.93773026  0.85953825     0.16600
H1046       H  0.16048425  0.90881885  0.89945845     0.12500
H1047       H  0.06468164  0.81685299  0.89940725     0.15300
H1048       H  0.03600584  0.84632902  0.85987363     0.15100
C1049       C  0.27364811  0.18024590  0.80768540    -0.17800
C1050       C  0.27583809  0.16029016  0.81778503    -0.19900
C1051       C  0.25511281  0.14206684  0.81979410     0.20700
C1052       C  0.23185738  0.14413724  0.81161985    -0.02900
C1053       C  0.22956531  0.16438549  0.80148268    -0.05900
C1054       C  0.25065937  0.18237019  0.79946134     0.21000
C1055       C  0.20628762  0.16648010  0.79330082     0.19200
C1056       C  0.18556640  0.14827038  0.79533025    -0.17400
C1057       C  0.18789218  0.12813547  0.80533484    -0.19600
C1058       C  0.21095350  0.12589669  0.81350809     0.20600
C1059       C  0.21345538  0.10568818  0.82350290    -0.32600
C1060       C  0.23660864  0.10332889  0.83169921     0.01300
C1061       C  0.25731963  0.12174437  0.82977223    -0.24000
C1062       C  0.24855020  0.20197108  0.78913966    -0.28500
C1063       C  0.22553727  0.20408778  0.78086048     0.07000
C1064       C  0.20430954  0.18650604  0.78312280    -0.27200
H1065       H  0.28999991  0.19395940  0.80626322     0.11700
H1066       H  0.29382080  0.15901695  0.82397261     0.12900
H1067       H  0.16759574  0.14952356  0.78913355     0.11900
H1068       H  0.17164198  0.11426647  0.80666465     0.11200
H1069       H  0.19716494  0.09194383  0.82488372     0.16600
H1070       H  0.27531996  0.12020879  0.83590708     0.12500
H1071       H  0.26493882  0.21557936  0.78750900     0.15300
H1072       H  0.18661503  0.18793133  0.77670731     0.15100
C1073       C  0.43298227  0.92048057  0.95641425    -0.17800
C1074       C  0.43321808  0.90144532  0.94573649    -0.19900
C1075       C  0.45583325  0.89805681  0.93736942     0.20700
C1076       C  0.47822087  0.91437495  0.93956974    -0.02900
C1077       C  0.47791736  0.93371476  0.95027429    -0.05900
C1078       C  0.45529585  0.93651897  0.95883202     0.21000
C1079       C  0.50037492  0.94994589  0.95254302     0.19200
C1080       C  0.52281989  0.94683059  0.94402665    -0.17400
C1081       C  0.52317724  0.92753040  0.93346937    -0.19600
C1082       C  0.50104810  0.91112324  0.93121663     0.20600
C1083       C  0.50152687  0.89125283  0.92091353    -0.32600
C1084       C  0.47948883  0.87451229  0.91883319     0.01300
C1085       C  0.45657156  0.87835692  0.92699370    -0.24000
C1086       C  0.45546713  0.95513776  0.96973660    -0.28500
C1087       C  0.47762047  0.97160825  0.97195495     0.07000
C1088       C  0.50003214  0.96887483  0.96333762    -0.27200
H1089       H  0.41540186  0.92254650  0.96284213     0.11700
H1090       H  0.41582840  0.88913653  0.94413857     0.12900
H1091       H  0.54019375  0.95916656  0.94561280     0.11900
H1092       H  0.54084274  0.92532018  0.92712188     0.11200
H1093       H  0.51934294  0.88854400  0.91476144     0.16600
H1094       H  0.43928323  0.86594645  0.92539220     0.12500
H1095       H  0.43837222  0.95680254  0.97655566     0.15300
H1096       H  0.51713513  0.98155702  0.96504127     0.15100
C1097       C  0.43388066  0.06222057  0.04946827    -0.17800
C1098       C  0.43342753  0.08068080  0.06046909    -0.19900
C1099       C  0.45379995  0.09955288  0.06192633     0.20700
C1100       C  0.47500252  0.09953857  0.05229488    -0.02900
C1101       C  0.47548299  0.08093300  0.04121091    -0.05900
C1102       C  0.45471562  0.06229578  0.03973147     0.21000
C1103       C  0.49660485  0.08121290  0.03152009     0.19200
C1104       C  0.51714681  0.09978400  0.03305563    -0.17400
C1105       C  0.51665506  0.11818822  0.04402072    -0.19600
C1106       C  0.49561736  0.11830785  0.05362982     0.20600
C1107       C  0.49477728  0.13711976  0.06443773    -0.32600
C1108       C  0.47355476  0.13771460  0.07402047     0.01300
C1109       C  0.45321548  0.11860201  0.07273133    -0.24000
C1110       C  0.45512337  0.04423353  0.02849739    -0.28500
C1111       C  0.47611267  0.04455136  0.01883228     0.07000
C1112       C  0.49672054  0.06308818  0.02038885    -0.27200
H1113       H  0.41782912  0.04799576  0.04852174     0.11700
H1114       H  0.41701976  0.08032599  0.06778059     0.12900
H1115       H  0.53352680  0.10017560  0.02572404     0.11900
H1116       H  0.53267038  0.13246515  0.04493323     0.11200
H1117       H  0.51066089  0.15150346  0.06516076     0.16600
H1118       H  0.43681083  0.11857175  0.08003028     0.12500
H1119       H  0.43925608  0.02985424  0.02727196     0.15300
H1120       H  0.51271411  0.06351670  0.01281442     0.15100
C1121       C  0.42462021  0.01975745  0.93659865    -0.17800
C1122       C  0.40401370  0.02055906  0.92679040    -0.19900
C1123       C  0.37753984  0.01780093  0.93107979     0.20700
C1124       C  0.37175271  0.01405133  0.94539092    -0.02900
C1125       C  0.39254552  0.01345460  0.95530747    -0.05900
C1126       C  0.41909071  0.01632512  0.95087017     0.21000
C1127       C  0.38676826  0.00994494  0.96963972     0.19200
C1128       C  0.36029949  0.00702931  0.97391394    -0.17400
C1129       C  0.33970572  0.00742629  0.96407306    -0.19600
C1130       C  0.34521385  0.01085744  0.94979031     0.20600
C1131       C  0.32468984  0.01114396  0.93982933    -0.32600
C1132       C  0.33032999  0.01521089  0.92558427     0.01300
C1133       C  0.35677296  0.01866889  0.92130656    -0.24000
C1134       C  0.43963944  0.01559630  0.96076675    -0.28500
C1135       C  0.43406397  0.01166092  0.97503100     0.07000
C1136       C  0.40756730  0.00916862  0.97941271    -0.27200
H1137       H  0.44489757  0.02188450  0.93302288     0.11700
H1138       H  0.40879219  0.02332922  0.91583473     0.12900
H1139       H  0.35552375  0.00430877  0.98487318     0.11900
H1140       H  0.31945295  0.00502134  0.96763577     0.11200
H1141       H  0.30430050  0.00863902  0.94317138     0.16600
H1142       H  0.36122480  0.02153830  0.91031411     0.12500
H1143       H  0.46004112  0.01785803  0.95739231     0.15300
H1144       H  0.40324647  0.00604893  0.99040263     0.15100
C1145       C  0.81528217  0.14846457  0.09392350    -0.17800
C1146       C  0.83620120  0.16668361  0.09330654    -0.19900
C1147       C  0.85346872  0.16981006  0.10472416     0.20700
C1148       C  0.84934988  0.15476293  0.11697908    -0.02900
C1149       C  0.82816697  0.13644133  0.11761946    -0.05900
C1150       C  0.81126168  0.13308947  0.10597564     0.21000
C1151       C  0.82425205  0.12111575  0.12979287     0.19200
C1152       C  0.84115122  0.12469574  0.14133325    -0.17400
C1153       C  0.86219264  0.14279980  0.14068665    -0.19600
C1154       C  0.86663933  0.15769262  0.12850479     0.20600
C1155       C  0.88818612  0.17528007  0.12760502    -0.32600
C1156       C  0.89256219  0.19019820  0.11537642     0.01300
C1157       C  0.87494224  0.18749041  0.10403230    -0.24000
C1158       C  0.79105957  0.11395803  0.10642875    -0.28500
C1159       C  0.78756411  0.09788950  0.11833492     0.07000
C1160       C  0.80393741  0.10204105  0.13009212    -0.27200
H1161       H  0.80242944  0.14617199  0.08490228     0.11700
H1162       H  0.83904339  0.17813499  0.08383305     0.12900
H1163       H  0.83835502  0.11318147  0.15078886     0.11900
H1164       H  0.87517609  0.14493519  0.14966539     0.11200
H1165       H  0.90139105  0.17748824  0.13648550     0.16600
H1166       H  0.87819673  0.19875615  0.09453634     0.12500
H1167       H  0.77869800  0.11108235  0.09728116     0.15300
H1168       H  0.80123336  0.09017609  0.13942326     0.15100
C1169       C  0.52760267  0.98301059  0.05222028    -0.17800
C1170       C  0.54729232  0.98164821  0.06251318    -0.19900
C1171       C  0.57295341  0.99112865  0.05980343     0.20700
C1172       C  0.57887897  0.00204072  0.04656907    -0.02900
C1173       C  0.55910086  0.00307999  0.03610790    -0.05900
C1174       C  0.53331024  0.99364670  0.03900410     0.21000
C1175       C  0.56508628  0.01365862  0.02279524     0.19200
C1176       C  0.59070359  0.02333409  0.02013136    -0.17400
C1177       C  0.61021739  0.02261090  0.03056561    -0.19600
C1178       C  0.60450776  0.01200761  0.04380788     0.20600
C1179       C  0.62392345  0.01125400  0.05434752    -0.32600
C1180       C  0.61818766  0.00025375  0.06753431     0.01300
C1181       C  0.59271136  0.99005663  0.07013477    -0.24000
C1182       C  0.51363765  0.99516481  0.02866807    -0.28500
C1183       C  0.51948865  0.00563880  0.01543109     0.07000
C1184       C  0.54526626  0.01456871  0.01245903    -0.27200
H1185       H  0.50789585  0.97570292  0.05459319     0.11700
H1186       H  0.54240443  0.97329194  0.07263034     0.12900
H1187       H  0.59561350  0.03159133  0.00999532     0.11900
H1188       H  0.62980278  0.03032476  0.02826998     0.11200
H1189       H  0.64359021  0.01895579  0.05222798     0.16600
H1190       H  0.58805510  0.98183637  0.08031552     0.12500
H1191       H  0.49368385  0.98830627  0.03088462     0.15300
H1192       H  0.54960425  0.02280647  0.00223729     0.15100
C1193       C  0.58136317  0.41608005  0.12448426    -0.17800
C1194       C  0.56434838  0.39442618  0.12623143    -0.19900
C1195       C  0.56916843  0.37042083  0.11917985     0.20700
C1196       C  0.59125180  0.36822512  0.11021206    -0.02900
C1197       C  0.60849379  0.39011084  0.10846581    -0.05900
C1198       C  0.60353249  0.41407132  0.11568823     0.21000
C1199       C  0.63077381  0.38794549  0.09961642     0.19200
C1200       C  0.63542148  0.36396526  0.09246985    -0.17400
C1201       C  0.61827645  0.34227949  0.09417371    -0.19600
C1202       C  0.59617600  0.34416444  0.10306422     0.20600
C1203       C  0.57893398  0.32246355  0.10494057    -0.32600
C1204       C  0.55676426  0.32449323  0.11388103     0.01300
C1205       C  0.55220196  0.34864717  0.12096068    -0.24000
C1206       C  0.62100948  0.43551474  0.11420138    -0.28500
C1207       C  0.64376512  0.43340245  0.10575017     0.07000
C1208       C  0.64823548  0.40960715  0.09828427    -0.27200
H1209       H  0.57728451  0.43435826  0.13010387     0.11700
H1210       H  0.54742765  0.39644216  0.13313811     0.12900
H1211       H  0.65241945  0.36191875  0.08562246     0.11900
H1212       H  0.62237180  0.32398457  0.08857529     0.11200
H1213       H  0.58289102  0.30407323  0.09942782     0.16600
H1214       H  0.53530569  0.35081588  0.12783119     0.12500
H1215       H  0.61691006  0.45374834  0.11982570     0.15300
H1216       H  0.66560599  0.40757603  0.09172117     0.15100
C1217       C  0.86462596  0.50708375  0.02244227    -0.17800
C1218       C  0.84428383  0.50655378  0.03233285    -0.19900
C1219       C  0.84988465  0.51075476  0.04654788     0.20700
C1220       C  0.87621937  0.51551621  0.05089529    -0.02900
C1221       C  0.89680229  0.51583855  0.04091843    -0.05900
C1222       C  0.89088443  0.51170861  0.02662650     0.21000
C1223       C  0.92323580  0.52028101  0.04522531     0.19200
C1224       C  0.92880216  0.52443879  0.05946688    -0.17400
C1225       C  0.90831485  0.52438810  0.06935820    -0.19600
C1226       C  0.88195061  0.51999177  0.06518027     0.20600
C1227       C  0.86119698  0.51995128  0.07499088    -0.32600
C1228       C  0.83496071  0.51496549  0.07068250     0.01300
C1229       C  0.82953387  0.51032851  0.05646490    -0.24000
C1230       C  0.91131885  0.51213077  0.01675472    -0.28500
C1231       C  0.93763948  0.51627778  0.02096696     0.07000
C1232       C  0.94355256  0.52042726  0.03519627    -0.27200
H1233       H  0.85982397  0.50382601  0.01151345     0.11700
H1234       H  0.82413488  0.50290127  0.02885677     0.12900
H1235       H  0.94899076  0.52782218  0.06294937     0.11900
H1236       H  0.91309354  0.52776156  0.08027890     0.11200
H1237       H  0.86547839  0.52338718  0.08596790     0.16600
H1238       H  0.80931739  0.50685424  0.05304384     0.12500
H1239       H  0.90689100  0.50869569  0.00578588     0.15300
H1240       H  0.96393755  0.52370521  0.03840099     0.15100
C1241       C  0.87963625  0.43434437  0.37373942    -0.17800
C1242       C  0.89965136  0.41506514  0.37418121    -0.19900
C1243       C  0.89475934  0.39003297  0.38012540     0.20700
C1244       C  0.86943942  0.38439298  0.38565445    -0.02900
C1245       C  0.84926962  0.40382120  0.38521160    -0.05900
C1246       C  0.85439176  0.42892588  0.37924093     0.21000
C1247       C  0.82401531  0.39812356  0.39080510     0.19200
C1248       C  0.81904578  0.37308748  0.39667029    -0.17400
C1249       C  0.83900149  0.35385780  0.39710069    -0.19600
C1250       C  0.86424976  0.35935125  0.39167234     0.20600
C1251       C  0.88434774  0.34018133  0.39217835    -0.32600
C1252       C  0.90968583  0.34554912  0.38673448     0.01300
C1253       C  0.91471001  0.37056505  0.38067714    -0.24000
C1254       C  0.83424778  0.44819560  0.37898797    -0.28500
C1255       C  0.80910490  0.44273284  0.38472368     0.07000
C1256       C  0.80416910  0.41756469  0.39052197    -0.27200
H1257       H  0.88392579  0.45352050  0.36912357     0.11700
H1258       H  0.91897478  0.41974924  0.36988704     0.12900
H1259       H  0.79973312  0.36840505  0.40098318     0.11900
H1260       H  0.83470487  0.33469176  0.40172726     0.11200
H1261       H  0.88003903  0.32094302  0.39669402     0.16600
H1262       H  0.93417872  0.37504868  0.37652174     0.12500
H1263       H  0.83835696  0.46756290  0.37456251     0.15300
H1264       H  0.78480947  0.41294732  0.39477727     0.15100
C1265       C  0.52564449  0.53082505  0.43677014    -0.17800
C1266       C  0.54629592  0.53134501  0.42700644    -0.19900
C1267       C  0.57241816  0.52568799  0.43113689     0.20700
C1268       C  0.57781269  0.51945290  0.44525108    -0.02900
C1269       C  0.55704361  0.51933330  0.45514635    -0.05900
C1270       C  0.53080903  0.52489682  0.45085341     0.21000
C1271       C  0.56251392  0.51348985  0.46930453     0.19200
C1272       C  0.58858481  0.50758891  0.47341181    -0.17400
C1273       C  0.60911068  0.50739463  0.46357110    -0.19600
C1274       C  0.60394186  0.51331269  0.44947908     0.20600
C1275       C  0.62444857  0.51333965  0.43955885    -0.32600
C1276       C  0.61928595  0.52000047  0.42552905     0.01300
C1277       C  0.59322922  0.52617942  0.42140671    -0.24000
C1278       C  0.51018827  0.52407939  0.46068501    -0.28500
C1279       C  0.51554143  0.51797300  0.47474164     0.07000
C1280       C  0.54174937  0.51321377  0.47905001    -0.27200
H1281       H  0.50562049  0.53509127  0.43330574     0.11700
H1282       H  0.54181672  0.53608608  0.41620169     0.12900
H1283       H  0.59307837  0.50296227  0.48422833     0.11900
H1284       H  0.62906008  0.50268030  0.46699332     0.11200
H1285       H  0.64453100  0.50877533  0.44282702     0.16600
H1286       H  0.58908778  0.53104786  0.41057636     0.12500
H1287       H  0.48990938  0.52774024  0.45741742     0.15300
H1288       H  0.54573465  0.50828864  0.48989473     0.15100
C1289       C  0.75989504  0.88280379  0.18686870    -0.17800
C1290       C  0.76170477  0.86318008  0.19715180    -0.19900
C1291       C  0.73971238  0.84721759  0.20031034     0.20700
C1292       C  0.71561053  0.85106884  0.19304557    -0.02900
C1293       C  0.71383131  0.87079286  0.18259915    -0.05900
C1294       C  0.73608211  0.88674234  0.17954166     0.21000
C1295       C  0.68982675  0.87457711  0.17524681     0.19200
C1296       C  0.66777876  0.85866533  0.17846283    -0.17400
C1297       C  0.66948265  0.83922519  0.18889040    -0.19600
C1298       C  0.69329970  0.83528706  0.19624031     0.20600
C1299       C  0.69520564  0.81593766  0.20675549    -0.32600
C1300       C  0.71923123  0.81195178  0.21401069     0.01300
C1301       C  0.74140976  0.82758265  0.21065462    -0.24000
C1302       C  0.73419241  0.90639164  0.16922643    -0.28500
C1303       C  0.71037007  0.91040329  0.16183398     0.07000
C1304       C  0.68827993  0.89427525  0.16487275    -0.27200
H1305       H  0.77715571  0.89490877  0.18463683     0.11700
H1306       H  0.78032173  0.86051628  0.20265557     0.12900
H1307       H  0.64918221  0.86130695  0.17293989     0.11900
H1308       H  0.65216253  0.82726358  0.19120605     0.11200
H1309       H  0.67800616  0.80391281  0.20925091     0.16600
H1310       H  0.75990858  0.82478086  0.21626224     0.12500
H1311       H  0.75146886  0.91837593  0.16689355     0.15300
H1312       H  0.66975359  0.89727372  0.15934469     0.15100
C1313       C  0.77546455  0.64488877  0.18283484    -0.17800
C1314       C  0.77429491  0.66303609  0.19391595    -0.19900
C1315       C  0.74978346  0.67027850  0.19973627     0.20700
C1316       C  0.72621702  0.65896882  0.19445037    -0.02900
C1317       C  0.72741136  0.64057326  0.18326914    -0.05900
C1318       C  0.75214639  0.63363246  0.17740377     0.21000
C1319       C  0.70388068  0.62928327  0.17791335     0.19200
C1320       C  0.67938644  0.63639431  0.18382710    -0.17400
C1321       C  0.67819233  0.65470662  0.19487778    -0.19600
C1322       C  0.70147292  0.66622450  0.20023438     0.20600
C1323       C  0.70045279  0.68510774  0.21112051    -0.32600
C1324       C  0.72389814  0.69678883  0.21629612     0.01300
C1325       C  0.74847227  0.68892694  0.21061757    -0.24000
C1326       C  0.75319284  0.61558122  0.16621101    -0.28500
C1327       C  0.72985037  0.60418737  0.16075950     0.07000
C1328       C  0.70524420  0.61117636  0.16671855    -0.27200
H1329       H  0.79462141  0.63972848  0.17847671     0.11700
H1330       H  0.79257889  0.67155601  0.19787583     0.12900
H1331       H  0.66111154  0.62788392  0.17985631     0.11900
H1332       H  0.65902208  0.65997635  0.19918411     0.11200
H1333       H  0.68143030  0.69094559  0.21541685     0.16600
H1334       H  0.76671667  0.69769391  0.21448855     0.12500
H1335       H  0.77230472  0.61025297  0.16188380     0.15300
H1336       H  0.68705741  0.60277667  0.16259968     0.15100
C1337       C  0.67499471  0.66941645  0.30067176    -0.17800
C1338       C  0.67389372  0.65253481  0.31223668    -0.19900
C1339       C  0.69730439  0.64412197  0.31880897     0.20700
C1340       C  0.72208823  0.65296847  0.31374819    -0.02900
C1341       C  0.72320202  0.67006756  0.30207838    -0.05900
C1342       C  0.69951965  0.67818354  0.29551126     0.21000
C1343       C  0.74795102  0.67890526  0.29694651     0.19200
C1344       C  0.77135111  0.67065184  0.30362805    -0.17400
C1345       C  0.77025276  0.65359390  0.31517552    -0.19600
C1346       C  0.74573570  0.64453462  0.32025404     0.20600
C1347       C  0.74444611  0.62692163  0.33159456    -0.32600
C1348       C  0.71981513  0.61764181  0.33653412     0.01300
C1349       C  0.69633332  0.62667456  0.33020396    -0.24000
C1350       C  0.70067680  0.69495399  0.28389180    -0.28500
C1351       C  0.72517277  0.70396162  0.27866459     0.07000
C1352       C  0.74879914  0.69582048  0.28525041    -0.27200
H1353       H  0.65663877  0.67556256  0.29573157     0.11700
H1354       H  0.65472404  0.64592233  0.31598828     0.12900
H1355       H  0.79051743  0.67727394  0.29987689     0.11900
H1356       H  0.78860325  0.64734681  0.32008220     0.11200
H1357       H  0.76266657  0.62038231  0.33652329     0.16600
H1358       H  0.67728484  0.61953261  0.33384738     0.12500
H1359       H  0.68230902  0.70108992  0.27895041     0.15300
H1360       H  0.76776048  0.70274645  0.28135181     0.15100
C1361       C  0.65735068  0.16706576  0.38869973    -0.17800
C1362       C  0.63915078  0.18804294  0.38789431    -0.19900
C1363       C  0.61600633  0.18555869  0.37979942     0.20700
C1364       C  0.61127738  0.16172910  0.37238672    -0.02900
C1365       C  0.62963282  0.14055494  0.37320737    -0.05900
C1366       C  0.65274217  0.14320215  0.38143175     0.21000
C1367       C  0.62477621  0.11671637  0.36583958     0.19200
C1368       C  0.60174350  0.11426399  0.35767119    -0.17400
C1369       C  0.58359232  0.13520748  0.35685641    -0.19600
C1370       C  0.58815303  0.15897591  0.36419493     0.20600
C1371       C  0.56988589  0.17993646  0.36351359    -0.32600
C1372       C  0.57426323  0.20381376  0.37090552     0.01300
C1373       C  0.59750243  0.20642112  0.37901741    -0.24000
C1374       C  0.67079140  0.12195845  0.38226534    -0.28500
C1375       C  0.66608867  0.09799423  0.37498081     0.07000
C1376       C  0.64293776  0.09568260  0.36678384    -0.27200
H1377       H  0.67501276  0.16948635  0.39505161     0.11700
H1378       H  0.64315258  0.20620107  0.39364307     0.12900
H1379       H  0.59772073  0.09609691  0.35193071     0.11900
H1380       H  0.56592877  0.13278089  0.35050617     0.11200
H1381       H  0.55211306  0.17734947  0.35730203     0.16600
H1382       H  0.60133890  0.22466338  0.38470268     0.12500
H1383       H  0.68850576  0.12425808  0.38856315     0.15300
H1384       H  0.63877949  0.07746458  0.36115379     0.15100
C1385       C  0.86992478  0.05265841  0.44788366    -0.17800
C1386       C  0.88742429  0.05236608  0.45924853    -0.19900
C1387       C  0.90412273  0.03048969  0.46149557     0.20700
C1388       C  0.90344587  0.00881256  0.45209628    -0.02900
C1389       C  0.88565809  0.00907071  0.44062796    -0.05900
C1390       C  0.86872287  0.03102334  0.43859693     0.21000
C1391       C  0.88459012  0.98727303  0.43131798     0.19200
C1392       C  0.90171801  0.96561812  0.43343780    -0.18600
C1393       C  0.91942751  0.96539753  0.44477141    -0.19600
C1394       C  0.92033378  0.98680436  0.45422724     0.20600
C1395       C  0.93782816  0.98668186  0.46573479    -0.32600
C1396       C  0.93869158  0.00835259  0.47507959     0.01300
C1397       C  0.92148112  0.02997261  0.47297039    -0.24000
C1398       C  0.85050337  0.03083017  0.42748951    -0.28500
C1399       C  0.84849914  0.00882161  0.41838307     0.07000
C1400       C  0.86607605  0.98729204  0.42024793    -0.27200
H1401       H  0.85709731  0.06971780  0.44644633     0.11700
H1402       H  0.88782675  0.06923349  0.46632003     0.12900
H1403       H  0.90126684  0.94872134  0.42639018     0.11900
H1404       H  0.93230772  0.94837653  0.44619140     0.11200
H1405       H  0.95108149  0.96998779  0.46731508     0.16600
H1406       H  0.92179298  0.04652808  0.48025455     0.12500
H1407       H  0.83764074  0.04784098  0.42613356     0.15300
H1408       H  0.86497774  0.97023197  0.41334540     0.15100
C1409       C  0.68493623  0.85745045  0.29930180    -0.17800
C1410       C  0.68765011  0.87680391  0.30977547    -0.19900
C1411       C  0.71282066  0.88654554  0.31348697     0.20700
C1412       C  0.73546828  0.87680831  0.30651010    -0.02900
C1413       C  0.73270588  0.85742148  0.29586783    -0.05900
C1414       C  0.70732806  0.84756166  0.29229175     0.21000
C1415       C  0.75537537  0.84776418  0.28890208     0.19200
C1416       C  0.78052987  0.85762695  0.29252077    -0.17400
C1417       C  0.78327644  0.87668035  0.30310814    -0.19600
C1418       C  0.76090910  0.88628641  0.31022788     0.20600
C1419       C  0.76356292  0.90511013  0.32102318    -0.32600
C1420       C  0.74109270  0.91496462  0.32802279     0.01300
C1421       C  0.71575933  0.90570836  0.32410324    -0.24000
C1422       C  0.70484339  0.82784945  0.28188144    -0.28500
C1423       C  0.72744595  0.81787651  0.27500722     0.07000
C1424       C  0.75259308  0.82820258  0.27854060    -0.27200
H1425       H  0.66529965  0.85016501  0.29670891     0.11700
H1426       H  0.67004306  0.88405743  0.31503383     0.12900
H1427       H  0.79813382  0.85043036  0.28723572     0.11900
H1428       H  0.80293398  0.88381354  0.30577507     0.11200
H1429       H  0.78310771  0.91234961  0.32384783     0.16600
H1430       H  0.69832861  0.91304567  0.32949469     0.12500
H1431       H  0.68539474  0.82008964  0.27925837     0.15300
H1432       H  0.77019937  0.82081460  0.27332155     0.15100
loop_ 
_geom_bond_atom_site_label_1 
_geom_bond_atom_site_label_2 
_geom_bond_distance 
_geom_bond_site_symmetry_2 
_ccdc_geom_bond_type 
N1            N2   1.323       .  A
N1            C5   1.344       .  A
N1           Cu9   2.072   1_565  S
N2            C3   1.349       .  A
N2           Cu8   2.097       .  S
C3            C4   1.390       .  A
C3            H6   1.082       .  S
C4            C5   1.383       .  A
C4         C1420   1.485       .  S
C5            H7   1.082       .  S
Cu8          N11   2.098       .  S
Cu9          N19   2.071       .  S
Cu10         N12   2.079       .  S
Cu10         N18   2.078       .  S
N11          N12   1.323   1_565  A
N11          C15   1.351       .  A
N12          C13   1.343       .  A
C13          C14   1.388       .  A
C13          H16   1.081       .  S
C14          C15   1.393   1_545  A
C14        C1399   1.495       .  S
C15          H17   1.081       .  S
N18          N19   1.319       .  A
N18          C22   1.347       .  A
N19          C20   1.344       .  A
C20          C21   1.390       .  A
C20          H23   1.081       .  S
C21          C22   1.391       .  A
C21        C1375   1.492       .  S
C22          H24   1.081       .  S
O25         Cu33   2.026       .  S
O25          C35   1.280       .  A
O26         Cu33   2.022       .  S
O26          C36   1.281       .  A
O27         Cu33   1.988       .  S
O27          C37   1.275       .  A
O28         Cu33   1.993       .  S
O28          C38   1.276       .  A
O29         Cu34   2.036       .  S
O29          C38   1.282       .  A
O30         Cu34   2.040       .  S
O30          C37   1.282       .  A
O31         Cu34   1.993       .  S
O31          C36   1.275       .  A
O32         Cu34   1.987       .  S
O32          C35   1.276       .  A
Cu33        Cu34   2.369       .  S
C35        C1351   1.482       .  S
C36        C1300   1.479       .  S
C37        C1423   1.487       .  S
C38        C1324   1.486       .  S
N39          N40   1.321       .  A
N39          C43   1.342       .  A
N39         Cu47   2.060       .  S
N40          C41   1.346       .  A
N40         Cu46   2.080       .  S
C41          C42   1.389       .  A
C41          H44   1.082       .  S
C42          C43   1.383       .  A
C42        C1348   1.481       .  S
C43          H45   1.082       .  S
Cu46         N49   2.079       .  S
Cu47         N57   2.060       .  S
Cu48         N50   2.075       .  S
Cu48         N56   2.074       .  S
N49          N50   1.323       .  A
N49          C53   1.345       .  A
N50          C51   1.345       .  A
C51          C52   1.385       .  A
C51          H54   1.082       .  S
C52          C53   1.385       .  A
C52        C1276   1.480       .  S
C53          H55   1.082       .  S
N56          N57   1.320       .  A
N56          C60   1.343       .  A
N57          C58   1.344       .  A
C58          C59   1.385       .  A
C58          H61   1.081       .  S
C59          C60   1.388       .  A
C59        C1255   1.482       .  S
C60          H62   1.081       .  S
N63          N64   1.321       .  A
N63          C67   1.344       .  A
N63         Cu71   2.073       .  S
N64          C65   1.345       .  A
N64         Cu70   2.077       .  S
C65          C66   1.389       .  A
C65          H68   1.081       .  S
C66          C67   1.387       .  A
C66        C1327   1.488       .  S
C67          H69   1.081       .  S
Cu70         N73   2.076       .  S
Cu71         N81   2.073       .  S
Cu72         N74   2.071       .  S
Cu72         N80   2.071       .  S
N73          N74   1.323       .  A
N73          C77   1.347       .  A
N74          C75   1.342       .  A
C75          C76   1.383       .  A
C75          H78   1.082       .  S
C76          C77   1.385       .  A
C76        C1228   1.477       .  S
C77          H79   1.082       .  S
N80          N81   1.320       .  A
N80          C84   1.347       .  A
N81          C82   1.342       .  A
C82          C83   1.389       .  A
C82          H85   1.081       .  S
C83          C84   1.390       .  A
C83        C1207   1.489       .  S
C84          H86   1.081       .  S
N87          N88   1.322       .  A
N87          C91   1.343       .  A
N87         Cu95   2.073   1_565  S
N88          C89   1.347       .  A
N88         Cu94   2.081       .  S
C89          C90   1.388       .  A
C89          H92   1.081       .  S
C90          C91   1.386       .  A
C90        C1303   1.485       .  S
C91          H93   1.081       .  S
Cu94         N97   2.081       .  S
Cu95        N105   2.073       .  S
Cu96         N98   2.068       .  S
Cu96        N104   2.067       .  S
N97          N98   1.322   1_565  A
N97         C101   1.346       .  A
N98          C99   1.344       .  A
C99         C100   1.384   1_545  A
C99         H102   1.082       .  S
C100        C101   1.387       .  A
C100       C1180   1.481   1_565  S
C101        H103   1.082       .  S
N104        N105   1.320       .  A
N104        C108   1.343       .  A
N105        C106   1.345       .  A
C106        C107   1.389       .  A
C106        H109   1.081       .  S
C107        C108   1.387       .  A
C107       C1159   1.486       .  S
C108        H110   1.081       .  S
C111        C112   1.413       .  A
C111        C116   1.402   1_554  A
C111       C1111   1.481       .  S
C112        C113   1.400   1_544  A
C112       C1183   1.479       .  S
C113        C114   1.405       .  A
C113        H118   1.084       .  S
C114        C115   1.419   1_565  A
C114       C1087   1.484       .  S
C115        C116   1.404       .  A
C115       C1135   1.487       .  S
C116        H117   1.084       .  S
N119        N120   1.320       .  A
N119        C123   1.342       .  A
N119       Cu127   2.065       .  S
N120        C121   1.347       .  A
N120       Cu126   2.079       .  S
C121        C122   1.391       .  A
C121        H124   1.081       .  S
C122        C123   1.387       .  A
C122       C1060   1.488       .  S
C123        H125   1.081       .  S
Cu126       N129   2.079       .  S
Cu127       N137   2.066   1_545  S
Cu128       N130   2.083   1_565  S
Cu128       N136   2.082       .  S
N129        N130   1.324       .  A
N129        C133   1.345       .  A
N130        C131   1.347       .  A
C131        C132   1.385       .  A
C131        H134   1.082   1_545  S
C132        C133   1.384       .  A
C132       C1132   1.479       .  S
C133        H135   1.082       .  S
N136        N137   1.320       .  A
N136        C140   1.346       .  A
N137        C138   1.343       .  A
C138        C139   1.388       .  A
C138        H141   1.081       .  S
C139        C140   1.392       .  A
C139       C1036   1.491       .  S
C140        H142   1.081       .  S
N143        N144   1.321       .  A
N143        C147   1.343       .  A
N143       Cu151   2.056       .  S
N144        C145   1.347       .  A
N144       Cu150   2.090       .  S
C145        C146   1.390       .  A
C145        H148   1.082       .  S
C146        C147   1.381       .  A
C146       C1012   1.481       .  S
C147        H149   1.082       .  S
Cu150       N153   2.090       .  S
Cu151       N161   2.055       .  S
Cu152       N154   2.068       .  S
Cu152       N160   2.067       .  S
N153        N154   1.324       .  A
N153        C157   1.348       .  A
N154        C155   1.342       .  A
C155        C156   1.381       .  A
C155        H158   1.082       .  S
C156        C157   1.386       .  A
C156        C991   1.477       .  S
C157        H159   1.082       .  S
N160        N161   1.318       .  A
N160        C164   1.346       .  A
N161        C162   1.339       .  A
C162        C163   1.386       .  A
C162        H165   1.081       .  S
C163        C164   1.391       .  A
C163        C967   1.485       .  S
C164        H166   1.081       .  S
O167       Cu175   1.983       .  S
O167        C177   1.275       .  A
O168       Cu175   1.987       .  S
O168        C178   1.276       .  A
O169       Cu175   2.028       .  S
O169        C179   1.281       .  A
O170       Cu175   2.030       .  S
O170        C180   1.281       .  A
O171       Cu176   1.987       .  S
O171        C180   1.275       .  A
O172       Cu176   1.987       .  S
O172        C179   1.275       .  A
O173       Cu176   2.034       .  S
O173        C178   1.281       .  A
O174       Cu176   2.034       .  S
O174        C177   1.282       .  A
Cu175      Cu176   2.370       .  S
C177        C943   1.483       .  S
C178       C1015   1.484       .  S
C179        C916   1.482       .  S
C180       C1063   1.478       .  S
N181        N182   1.322       .  A
N181        C185   1.344       .  A
N181       Cu189   2.067       .  S
N182        C183   1.346       .  A
N182       Cu188   2.082       .  S
C183        C184   1.387       .  A
C183        H186   1.082       .  S
C184        C185   1.383       .  A
C184        C940   1.479       .  S
C185        H187   1.082       .  S
Cu188       N191   2.083       .  S
Cu189       N199   2.067   1_545  S
Cu190       N192   2.086       .  S
Cu190       N198   2.085       .  S
N191        N192   1.322   1_545  A
N191        C195   1.348       .  A
N192        C193   1.344       .  A
C193        C194   1.391   1_565  A
C193        H196   1.081       .  S
C194        C195   1.391       .  A
C194        C892   1.495       .  S
C195        H197   1.081       .  S
N198        N199   1.321       .  A
N198        C202   1.347       .  A
N199        C200   1.344       .  A
C200        C201   1.385       .  A
C200        H203   1.082       .  S
C201        C202   1.389       .  A
C201        C868   1.484       .  S
C202        H204   1.082       .  S
N205        N206   1.322       .  A
N205        C209   1.341       .  A
N205       Cu213   2.060       .  S
N206        C207   1.347       .  A
N206       Cu212   2.086       .  S
C207        C208   1.389       .  A
C207        H210   1.082       .  S
C208        C209   1.382       .  A
C208        C919   1.480       .  S
C209        H211   1.082       .  S
Cu212       N215   2.087       .  S
Cu213       N223   2.059       .  S
Cu214       N216   2.060       .  S
Cu214       N222   2.059       .  S
N215        N216   1.323       .  A
N215        C219   1.348       .  A
N216        C217   1.341       .  A
C217        C218   1.380       .  A
C217        H220   1.082       .  S
C218        C219   1.387       .  A
C218        C847   1.476       .  S
C219        H221   1.082       .  S
N222        N223   1.318       .  A
N222        C226   1.343       .  A
N223        C224   1.341       .  A
C224        C225   1.388       .  A
C224        H227   1.081       .  S
C225        C226   1.388       .  A
C225        C823   1.483       .  S
C226        H228   1.081       .  S
C229        C230   1.415       .  A
C229        C234   1.403   1_655  A
C229        C772   1.488       .  S
C230        C231   1.405   1_554  A
C230       C1231   1.479       .  S
C231        C232   1.401       .  A
C231        H236   1.085       .  S
C232        C233   1.415       .  A
C232        C796   1.487       .  S
C233        C234   1.406   1_656  A
C233        C988   1.478   1_655  S
C234        H235   1.084       .  S
O237       Cu245   2.012       .  S
O237        C247   1.279       .  A
O238       Cu245   2.015       .  S
O238        C248   1.279       .  A
O239       Cu245   1.988       .  S
O239        C249   1.276       .  A
O240       Cu245   1.990       .  S
O240        C250   1.276       .  A
O241       Cu246   2.024       .  S
O241        C250   1.280       .  A
O242       Cu246   2.030       .  S
O242        C249   1.281       .  A
O243       Cu246   1.995       .  S
O243        C248   1.276       .  A
O244       Cu246   1.998       .  S
O244        C247   1.277       .  A
Cu245      Cu246   2.371       .  S
C247        C676   1.480       .  S
C248        C727   1.477       .  S
C249        C748   1.482       .  S
C250        C700   1.481       .  S
N251        N252   1.321       .  A
N251        C255   1.342       .  A
N251       Cu259   2.071       .  S
N252        C253   1.345       .  A
N252       Cu258   2.070       .  S
C253        C254   1.388       .  A
C253        H256   1.081       .  S
C254        C255   1.387       .  A
C254        C724   1.484       .  S
C255        H257   1.081       .  S
Cu258       N261   2.070       .  S
Cu259       N269   2.071       .  S
Cu260       N262   2.061       .  S
Cu260       N268   2.060       .  S
N261        N262   1.320       .  A
N261        C265   1.344       .  A
N262        C263   1.342       .  A
C263        C264   1.386       .  A
C263        H266   1.081       .  S
C264        C265   1.388       .  A
C264       C1084   1.483       .  S
C265        H267   1.081       .  S
N268        N269   1.319       .  A
N268        C272   1.342       .  A
N269        C270   1.344       .  A
C270        C271   1.390       .  A
C270        H273   1.081       .  S
C271        C272   1.387       .  A
C271        C964   1.486       .  S
C272        H274   1.081       .  S
N275        N276   1.324       .  A
N275        C279   1.344       .  A
N275       Cu283   2.067       .  S
N276        C277   1.346       .  A
N276       Cu282   2.089       .  S
C277        C278   1.388       .  A
C277        H280   1.082       .  S
C278        C279   1.382       .  A
C278        C703   1.480       .  S
C279        H281   1.082       .  S
Cu282       N285   2.089       .  S
Cu283       N293   2.067       .  S
Cu284       N286   2.073       .  S
Cu284       N292   2.073   1_655  S
N285        N286   1.321       .  A
N285        C289   1.350       .  A
N286        C287   1.341       .  A
C287        C288   1.389       .  A
C287        H290   1.080       .  S
C288        C289   1.394       .  A
C288        C799   1.495       .  S
C289        H291   1.081       .  S
N292        N293   1.320   1_455  A
N292        C296   1.344       .  A
N293        C294   1.345   1_655  A
C294        C295   1.386       .  A
C294        H297   1.082   1_455  S
C295        C296   1.386       .  A
C295       C1039   1.481       .  S
C296        H298   1.082       .  S
N299        N300   1.321       .  A
N299        C303   1.343       .  A
N299       Cu307   2.065       .  S
N300        C301   1.346       .  A
N300       Cu306   2.081       .  S
C301        C302   1.388       .  A
C301        H304   1.082       .  S
C302        C303   1.383       .  A
C302        C751   1.481       .  S
C303        H305   1.082       .  S
Cu306       N309   2.081       .  S
Cu307       N317   2.065       .  S
Cu308       N310   2.076       .  S
Cu308       N316   2.076       .  S
N309        N310   1.322       .  A
N309        C313   1.346       .  A
N310        C311   1.344       .  A
C311        C312   1.389       .  A
C311        H314   1.081       .  S
C312        C313   1.390       .  A
C312        C652   1.490       .  S
C313        H315   1.081       .  S
N316        N317   1.321       .  A
N316        C320   1.346       .  A
N317        C318   1.343       .  A
C318        C319   1.385       .  A
C318        H321   1.082       .  S
C319        C320   1.388       .  A
C319        C871   1.482       .  S
C320        H322   1.082       .  S
N323        N324   1.322       .  A
N323        C327   1.345       .  A
N323       Cu331   2.065       .  S
N324        C325   1.343       .  A
N324       Cu330   2.080       .  S
C325        C326   1.387       .  A
C325        H328   1.081       .  S
C326        C327   1.385       .  A
C326        C679   1.482       .  S
C327        H329   1.082       .  S
Cu330       N333   2.081       .  S
Cu331       N341   2.064       .  S
Cu332       N334   2.068       .  S
Cu332       N340   2.067   1_655  S
N333        N334   1.321       .  A
N333        C337   1.348       .  A
N334        C335   1.343       .  A
C335        C336   1.384       .  A
C335        H338   1.082   1_655  S
C336        C337   1.388       .  A
C336        C628   1.482       .  S
C337        H339   1.082       .  S
N340        N341   1.320   1_455  A
N340        C344   1.344       .  A
N341        C342   1.342   1_655  A
C342        C343   1.386       .  A
C342        H345   1.081       .  S
C343        C344   1.387       .  A
C343        C820   1.481       .  S
C344        H346   1.081       .  S
N347        N348   1.322       .  A
N347        C351   1.345       .  A
N347       Cu355   2.075   1_455  S
N348        C349   1.345       .  A
N348       Cu354   2.078       .  S
C349        C350   1.387       .  A
C349        H352   1.082       .  S
C350        C351   1.386       .  A
C350        C607   1.483       .  S
C351        H353   1.082       .  S
Cu354       N357   2.079   1_455  S
Cu355       N365   2.075       .  S
Cu356       N358   2.079       .  S
Cu356       N364   2.078       .  S
N357        N358   1.321       .  A
N357        C361   1.346   1_655  A
N358        C359   1.345       .  A
C359        C360   1.391       .  A
C359        H362   1.081       .  S
C360        C361   1.390   1_655  A
C360        C775   1.492       .  S
C361        H363   1.081       .  S
N364        N365   1.322       .  A
N364        C368   1.345       .  A
N365        C366   1.345       .  A
C366        C367   1.387       .  A
C366        H369   1.082       .  S
C367        C368   1.386       .  A
C367       C1156   1.483       .  S
C368        H370   1.082       .  S
N371        N372   1.322       .  A
N371        C375   1.345       .  A
N371       Cu379   2.074       .  S
N372        C373   1.347       .  A
N372       Cu378   2.089       .  S
C373        C374   1.390       .  A
C373        H376   1.082       .  S
C374        C375   1.385       .  A
C374        C580   1.486       .  S
C375        H377   1.082       .  S
Cu378       N381   2.089       .  S
Cu379       N389   2.073       .  S
Cu380       N382   2.073       .  S
Cu380       N388   2.073       .  S
N381        N382   1.322       .  A
N381        C385   1.349       .  A
N382        C383   1.341       .  A
C383        C384   1.388       .  A
C383        H386   1.080       .  S
C384        C385   1.392       .  A
C384       C1108   1.491       .  S
C385        H387   1.081       .  S
N388        N389   1.319       .  A
N388        C392   1.347       .  A
N389        C390   1.343       .  A
C390        C391   1.390       .  A
C390        H393   1.080       .  S
C391        C392   1.391       .  A
C391       C1204   1.491       .  S
C392        H394   1.081       .  S
O395       Cu403   1.993       .  S
O395        C405   1.276       .  A
O396       Cu403   1.988       .  S
O396        C406   1.276       .  A
O397       Cu403   2.040       .  S
O397        C407   1.282       .  A
O398       Cu403   2.042       .  S
O398        C408   1.282       .  A
O399       Cu404   1.996       .  S
O399        C408   1.276       .  A
O400       Cu404   1.992       .  S
O400        C407   1.276       .  A
O401       Cu404   2.030       .  S
O401        C406   1.281       .  A
O402       Cu404   2.028       .  S
O402        C405   1.281       .  A
Cu403      Cu404   2.368       .  S
C405        C604   1.484       .  S
C406        C559   1.483       .  S
C407        C583   1.487       .  S
C408        C532   1.490       .  S
N409        N410   1.322       .  A
N409        C413   1.342       .  A
N409       Cu417   2.062       .  S
N410        C411   1.351       .  A
N410       Cu416   2.105       .  S
C411        C412   1.395       .  A
C411        H414   1.081       .  S
C412        C413   1.384       .  A
C412        C535   1.491       .  S
C413        H415   1.081       .  S
Cu416       N419   2.105   1_455  S
Cu417       N427   2.062   1_455  S
Cu418       N420   2.079       .  S
Cu418       N426   2.078       .  S
N419        N420   1.324       .  A
N419        C423   1.350   1_655  A
N420        C421   1.346       .  A
C421        C422   1.384       .  A
C421        H424   1.082       .  S
C422        C423   1.390   1_655  A
C422        C508   1.487       .  S
C423        H425   1.082       .  S
N426        N427   1.320       .  A
N426        C430   1.344       .  A
N427        C428   1.344       .  A
C428        C429   1.386       .  A
C428        H431   1.081       .  S
C429        C430   1.389       .  A
C429       C1252   1.484       .  S
C430        H432   1.081       .  S
N433        N434   1.322       .  A
N433        C437   1.344       .  A
N433       Cu441   2.068       .  S
N434        C435   1.345       .  A
N434       Cu440   2.077       .  S
C435        C436   1.387       .  A
C435        H438   1.082       .  S
C436        C437   1.384       .  A
C436        C556   1.480       .  S
C437        H439   1.082       .  S
Cu440       N443   2.077       .  S
Cu441       N451   2.069       .  S
Cu442       N444   2.081       .  S
Cu442       N450   2.081       .  S
N443        N444   1.322       .  A
N443        C447   1.346       .  A
N444        C445   1.344       .  A
C445        C446   1.388       .  A
C445        H448   1.081       .  S
C446        C447   1.388       .  A
C446        C484   1.487       .  S
C447        H449   1.081       .  S
N450        N451   1.320       .  A
N450        C454   1.347       .  A
N451        C452   1.342       .  A
C452        C453   1.388       .  A
C452        H455   1.081       .  S
C453        C454   1.391       .  A
C453       C1372   1.490       .  S
C454        H456   1.081       .  S
C457        C458   1.420       .  A
C457        C462   1.408   1_545  A
C457       C1396   1.492       .  S
C458        C459   1.409       .  A
C458        C511   1.491       .  S
C459        C460   1.406       .  A
C459        H464   1.084   1_655  S
C460        C461   1.415   1_545  A
C460        C895   1.489   1_655  S
C461        C462   1.406       .  A
C461        C631   1.486       .  S
C462        H463   1.084       .  S
C465        C466   1.417       .  A
C465        C470   1.404       .  A
C465        C487   1.488       .  S
C466        C467   1.401       .  A
C466       C1279   1.480       .  S
C467        C468   1.404       .  A
C467        H472   1.084       .  S
C468        C469   1.419       .  A
C468        C655   1.490       .  S
C469        C470   1.404       .  A
C469        C844   1.483       .  S
C470        H471   1.084       .  S
C473        C474   1.398       .  A
C473        C478   1.402       .  A
C473        H489   1.084       .  S
C474        C475   1.403       .  A
C474        H490   1.083       .  S
C475        C485   1.401       .  A
C475        C476   1.411       .  A
C476        C482   1.411       .  A
C476        C477   1.412       .  A
C477        C479   1.412       .  A
C477        C478   1.411       .  A
C478        C486   1.400       .  A
C479        C488   1.405       .  A
C479        C480   1.404       .  A
C480        C481   1.401       .  A
C480        H491   1.083       .  S
C481        C482   1.405       .  A
C481        H492   1.084       .  S
C482        C483   1.406       .  A
C483        C484   1.409       .  A
C483        H493   1.083       .  S
C484        C485   1.407       .  A
C485        H494   1.083       .  S
C486        C487   1.406       .  A
C486        H495   1.084       .  S
C487        C488   1.407       .  A
C488        H496   1.084       .  S
C497        C498   1.401       .  A
C497        C502   1.404       .  A
C497        H513   1.084       .  S
C498        C499   1.405       .  A
C498        H514   1.083       .  S
C499        C509   1.407       .  A
C499        C500   1.411       .  A
C500        C506   1.412       .  A
C500        C501   1.415       .  A
C501        C503   1.411       .  A
C501        C502   1.412       .  A
C502        C510   1.407       .  A
C503        C512   1.405       .  A
C503        C504   1.404       .  A
C504        C505   1.400       .  A
C504        H515   1.084       .  S
C505        C506   1.404       .  A
C505        H516   1.083       .  S
C506        C507   1.407       .  A
C507        C508   1.407       .  A
C507        H517   1.084       .  S
C508        C509   1.409       .  A
C509        H518   1.084       .  S
C510        C511   1.406       .  A
C510        H519   1.084       .  S
C511        C512   1.407       .  A
C512        H520   1.084       .  S
C521        C522   1.402       .  A
C521        C526   1.405       .  A
C521        H537   1.083       .  S
C522        C523   1.404       .  A
C522        H538   1.083       .  S
C523        C533   1.410       .  A
C523        C524   1.413       .  A
C524        C530   1.409       .  A
C524        C525   1.415       .  A
C525        C527   1.413       .  A
C525        C526   1.409       .  A
C526        C534   1.405       .  A
C527        C536   1.406       .  A
C527        C528   1.403       .  A
C528        C529   1.399       .  A
C528        H539   1.084       .  S
C529        C530   1.404       .  A
C529        H540   1.084       .  S
C530        C531   1.401       .  A
C531        C532   1.410       .  A
C531        H541   1.084       .  S
C532        C533   1.409       .  A
C533        H542   1.084       .  S
C534        C535   1.412       .  A
C534        H543   1.082       .  S
C535        C536   1.407       .  A
C536        H544   1.083       .  S
C545        C546   1.396       .  A
C545        C550   1.403       .  A
C545        H561   1.084       .  S
C546        C547   1.402       .  A
C546        H562   1.084       .  S
C547        C557   1.400       .  A
C547        C548   1.412       .  A
C548        C554   1.411       .  A
C548        C549   1.412       .  A
C549        C551   1.413       .  A
C549        C550   1.409       .  A
C550        C558   1.398       .  A
C551        C560   1.407       .  A
C551        C552   1.404       .  A
C552        C553   1.401       .  A
C552        H563   1.084       .  S
C553        C554   1.405       .  A
C553        H564   1.083       .  S
C554        C555   1.405       .  A
C555        C556   1.408       .  A
C555        H565   1.084       .  S
C556        C557   1.404       .  A
C557        H566   1.084       .  S
C558        C559   1.408       .  A
C558        H567   1.084       .  S
C559        C560   1.408       .  A
C560        H568   1.084       .  S
C569        C570   1.401       .  A
C569        C574   1.404       .  A
C569        H585   1.083       .  S
C570        C571   1.405       .  A
C570        H586   1.083       .  S
C571        C581   1.406       .  A
C571        C572   1.410       .  A
C572        C578   1.412       .  A
C572        C573   1.414       .  A
C573        C575   1.409       .  A
C573        C574   1.413       .  A
C574        C582   1.408       .  A
C575        C584   1.401       .  A
C575        C576   1.404       .  A
C576        C577   1.398       .  A
C576        H587   1.084       .  S
C577        C578   1.403       .  A
C577        H588   1.084       .  S
C578        C579   1.404       .  A
C579        C580   1.406       .  A
C579        H589   1.083       .  S
C580        C581   1.409       .  A
C581        H590   1.083       .  S
C582        C583   1.408       .  A
C582        H591   1.084       .  S
C583        C584   1.410       .  A
C584        H592   1.084       .  S
C593        C594   1.400       .  A
C593        C598   1.404       .  A
C593        H609   1.083       .  S
C594        C595   1.404       .  A
C594        H610   1.083       .  S
C595        C605   1.405       .  A
C595        C596   1.412       .  A
C596        C602   1.410       .  A
C596        C597   1.413       .  A
C597        C599   1.411       .  A
C597        C598   1.411       .  A
C598        C606   1.404       .  A
C599        C608   1.403       .  A
C599        C600   1.403       .  A
C600        C601   1.398       .  A
C600        H611   1.083       .  S
C601        C602   1.404       .  A
C601        H612   1.084       .  S
C602        C603   1.402       .  A
C603        C604   1.409       .  A
C603        H613   1.084       .  S
C604        C605   1.407       .  A
C605        H614   1.084       .  S
C606        C607   1.407       .  A
C606        H615   1.084       .  S
C607        C608   1.407       .  A
C608        H616   1.083       .  S
C617        C618   1.399       .  A
C617        C622   1.403       .  A
C617        H633   1.084       .  S
C618        C619   1.404       .  A
C618        H634   1.083       .  S
C619        C629   1.402       .  A
C619        C620   1.410       .  A
C620        C626   1.413       .  A
C620        C621   1.413       .  A
C621        C623   1.411       .  A
C621        C622   1.413       .  A
C622        C630   1.405       .  A
C623        C632   1.404       .  A
C623        C624   1.404       .  A
C624        C625   1.401       .  A
C624        H635   1.084       .  S
C625        C626   1.404       .  A
C625        H636   1.083       .  S
C626        C627   1.407       .  A
C627        C628   1.407       .  A
C627        H637   1.084       .  S
C628        C629   1.407       .  A
C629        H638   1.084       .  S
C630        C631   1.404       .  A
C630        H639   1.084       .  S
C631        C632   1.407       .  A
C632        H640   1.084       .  S
C641        C642   1.399       .  A
C641        C646   1.403       .  A
C641        H657   1.084       .  S
C642        C643   1.404       .  A
C642        H658   1.083       .  S
C643        C653   1.404       .  A
C643        C644   1.411       .  A
C644        C650   1.410       .  A
C644        C645   1.412       .  A
C645        C647   1.411       .  A
C645        C646   1.411       .  A
C646        C654   1.403       .  A
C647        C656   1.402       .  A
C647        C648   1.403       .  A
C648        C649   1.399       .  A
C648        H659   1.084       .  S
C649        C650   1.404       .  A
C649        H660   1.084       .  S
C650        C651   1.402       .  A
C651        C652   1.409       .  A
C651        H661   1.082       .  S
C652        C653   1.409       .  A
C653        H662   1.082       .  S
C654        C655   1.407       .  A
C654        H663   1.084       .  S
C655        C656   1.407       .  A
C656        H664   1.084       .  S
C665        C666   1.397       .  A
C665        C670   1.403       .  A
C665        H681   1.084       .  S
C666        C667   1.403       .  A
C666        H682   1.084       .  S
C667        C677   1.400       .  A
C667        C668   1.411       .  A
C668        C674   1.411       .  A
C668        C669   1.411       .  A
C669        C671   1.411       .  A
C669        C670   1.411       .  A
C670        C678   1.399       .  A
C671        C680   1.404       .  A
C671        C672   1.404       .  A
C672        C673   1.400       .  A
C672        H683   1.083       .  S
C673        C674   1.404       .  A
C673        H684   1.083       .  S
C674        C675   1.404       .  A
C675        C676   1.408       .  A
C675        H685   1.084       .  S
C676        C677   1.407       .  A
C677        H686   1.084       .  S
C678        C679   1.406       .  A
C678        H687   1.083       .  S
C679        C680   1.408       .  A
C680        H688   1.083       .  S
C689        C690   1.400       .  A
C689        C694   1.404       .  A
C689        H705   1.084       .  S
C690        C691   1.404       .  A
C690        H706   1.084       .  S
C691        C701   1.405       .  A
C691        C692   1.412       .  A
C692        C698   1.410       .  A
C692        C693   1.411       .  A
C693        C695   1.412       .  A
C693        C694   1.411       .  A
C694        C702   1.404       .  A
C695        C704   1.401       .  A
C695        C696   1.403       .  A
C696        C697   1.397       .  A
C696        H707   1.084       .  S
C697        C698   1.403       .  A
C697        H708   1.084       .  S
C698        C699   1.399       .  A
C699        C700   1.408       .  A
C699        H709   1.084       .  S
C700        C701   1.407       .  A
C701        H710   1.084       .  S
C702        C703   1.408       .  A
C702        H711   1.084       .  S
C703        C704   1.405       .  A
C704        H712   1.084       .  S
C713        C714   1.399       .  A
C713        C718   1.404       .  A
C713        H729   1.083       .  S
C714        C715   1.404       .  A
C714        H730   1.084       .  S
C715        C725   1.403       .  A
C715        C716   1.411       .  A
C716        C722   1.410       .  A
C716        C717   1.410       .  A
C717        C719   1.412       .  A
C717        C718   1.410       .  A
C718        C726   1.402       .  A
C719        C728   1.401       .  A
C719        C720   1.402       .  A
C720        C721   1.397       .  A
C720        H731   1.084       .  S
C721        C722   1.403       .  A
C721        H732   1.083       .  S
C722        C723   1.400       .  A
C723        C724   1.407       .  A
C723        H733   1.082       .  S
C724        C725   1.408       .  A
C725        H734   1.083       .  S
C726        C727   1.408       .  A
C726        H735   1.084       .  S
C727        C728   1.405       .  A
C728        H736   1.084       .  S
C737        C738   1.397       .  A
C737        C742   1.403       .  A
C737        H753   1.084       .  S
C738        C739   1.403       .  A
C738        H754   1.084       .  S
C739        C749   1.399       .  A
C739        C740   1.409       .  A
C740        C746   1.413       .  A
C740        C741   1.412       .  A
C741        C743   1.410       .  A
C741        C742   1.412       .  A
C742        C750   1.402       .  A
C743        C752   1.403       .  A
C743        C744   1.404       .  A
C744        C745   1.400       .  A
C744        H755   1.083       .  S
C745        C746   1.404       .  A
C745        H756   1.084       .  S
C746        C747   1.407       .  A
C747        C748   1.407       .  A
C747        H757   1.084       .  S
C748        C749   1.408       .  A
C749        H758   1.084       .  S
C750        C751   1.405       .  A
C750        H759   1.084       .  S
C751        C752   1.408       .  A
C752        H760   1.084       .  S
C761        C762   1.401       .  A
C761        C766   1.405       .  A
C761        H777   1.083       .  S
C762        C763   1.404       .  A
C762        H778   1.083       .  S
C763        C773   1.407       .  A
C763        C764   1.413   1_455  A
C764        C770   1.411       .  A
C764        C765   1.414       .  A
C765        C767   1.411       .  A
C765        C766   1.410   1_655  A
C766        C774   1.406       .  A
C767        C776   1.403       .  A
C767        C768   1.404       .  A
C768        C769   1.398       .  A
C768        H779   1.084       .  S
C769        C770   1.403       .  A
C769        H780   1.084       .  S
C770        C771   1.401       .  A
C771        C772   1.406       .  A
C771        H781   1.084       .  S
C772        C773   1.406   1_655  A
C773        H782   1.084       .  S
C774        C775   1.411   1_455  A
C774        H783   1.082       .  S
C775        C776   1.409       .  A
C776        H784   1.082       .  S
C785        C786   1.397       .  A
C785        C790   1.404   1_455  A
C785        H801   1.084       .  S
C786        C787   1.402   1_455  A
C786        H802   1.084       .  S
C787        C797   1.402       .  A
C787        C788   1.413       .  A
C788        C794   1.411       .  A
C788        C789   1.414       .  A
C789        C791   1.412       .  A
C789        C790   1.409       .  A
C790        C798   1.400       .  A
C791        C800   1.410       .  A
C791        C792   1.405       .  A
C792        C793   1.403       .  A
C792        H803   1.083       .  S
C793        C794   1.405       .  A
C793        H804   1.083       .  S
C794        C795   1.408       .  A
C795        C796   1.408       .  A
C795        H805   1.084       .  S
C796        C797   1.404       .  A
C797        H806   1.084   1_655  S
C798        C799   1.410       .  A
C798        H807   1.081   1_655  S
C799        C800   1.412       .  A
C800        H808   1.082       .  S
C809        C810   1.399       .  A
C809        C814   1.404       .  A
C809        H825   1.084       .  S
C810        C811   1.403       .  A
C810        H826   1.083       .  S
C811        C821   1.402       .  A
C811        C812   1.411       .  A
C812        C818   1.410       .  A
C812        C813   1.409       .  A
C813        C815   1.410       .  A
C813        C814   1.410       .  A
C814        C822   1.402       .  A
C815        C824   1.399       .  A
C815        C816   1.403       .  A
C816        C817   1.397       .  A
C816        H827   1.084       .  S
C817        C818   1.403       .  A
C817        H828   1.084       .  S
C818        C819   1.399       .  A
C819        C820   1.407       .  A
C819        H829   1.082       .  S
C820        C821   1.408       .  A
C821        H830   1.083       .  S
C822        C823   1.408       .  A
C822        H831   1.082       .  S
C823        C824   1.407       .  A
C824        H832   1.082       .  S
C833        C834   1.399       .  A
C833        C838   1.404       .  A
C833        H849   1.084       .  S
C834        C835   1.403       .  A
C834        H850   1.084       .  S
C835        C845   1.403       .  A
C835        C836   1.413       .  A
C836        C842   1.411       .  A
C836        C837   1.411       .  A
C837        C839   1.413       .  A
C837        C838   1.411       .  A
C838        C846   1.401       .  A
C839        C848   1.403       .  A
C839        C840   1.403       .  A
C840        C841   1.399       .  A
C840        H851   1.084       .  S
C841        C842   1.403       .  A
C841        H852   1.084       .  S
C842        C843   1.401       .  A
C843        C844   1.405       .  A
C843        H853   1.084       .  S
C844        C845   1.404       .  A
C845        H854   1.084       .  S
C846        C847   1.406       .  A
C846        H855   1.084       .  S
C847        C848   1.404       .  A
C848        H856   1.084       .  S
C857        C858   1.399       .  A
C857        C862   1.403       .  A
C857        H873   1.084       .  S
C858        C859   1.404       .  A
C858        H874   1.083       .  S
C859        C869   1.404       .  A
C859        C860   1.411       .  A
C860        C866   1.411       .  A
C860        C861   1.412       .  A
C861        C863   1.411       .  A
C861        C862   1.411       .  A
C862        C870   1.403       .  A
C863        C872   1.403       .  A
C863        C864   1.404       .  A
C864        C865   1.399       .  A
C864        H875   1.084       .  S
C865        C866   1.404       .  A
C865        H876   1.084       .  S
C866        C867   1.403       .  A
C867        C868   1.408       .  A
C867        H877   1.083       .  S
C868        C869   1.407       .  A
C869        H878   1.083       .  S
C870        C871   1.407       .  A
C870        H879   1.083       .  S
C871        C872   1.407       .  A
C872        H880   1.084       .  S
C881        C882   1.398       .  A
C881        C886   1.403       .  A
C881        H897   1.084       .  S
C882        C883   1.404       .  A
C882        H898   1.084       .  S
C883        C893   1.402       .  A
C883        C884   1.410   1_565  A
C884        C890   1.411       .  A
C884        C885   1.415       .  A
C885        C887   1.412       .  A
C885        C886   1.411   1_545  A
C886        C894   1.402       .  A
C887        C896   1.409       .  A
C887        C888   1.404       .  A
C888        C889   1.402       .  A
C888        H899   1.083       .  S
C889        C890   1.405       .  A
C889        H900   1.083       .  S
C890        C891   1.409       .  A
C891        C892   1.412       .  A
C891        H901   1.082       .  S
C892        C893   1.409   1_545  A
C893        H902   1.081       .  S
C894        C895   1.406   1_565  A
C894        H903   1.084       .  S
C895        C896   1.407       .  A
C896        H904   1.084   1_455  S
C905        C906   1.400       .  A
C905        C910   1.404       .  A
C905        H921   1.084       .  S
C906        C907   1.403       .  A
C906        H922   1.084       .  S
C907        C917   1.406       .  A
C907        C908   1.413       .  A
C908        C914   1.409       .  A
C908        C909   1.411       .  A
C909        C911   1.412       .  A
C909        C910   1.410       .  A
C910        C918   1.402       .  A
C911        C920   1.402       .  A
C911        C912   1.402       .  A
C912        C913   1.397       .  A
C912        H923   1.084       .  S
C913        C914   1.403       .  A
C913        H924   1.084       .  S
C914        C915   1.399       .  A
C915        C916   1.408       .  A
C915        H925   1.084       .  S
C916        C917   1.407       .  A
C917        H926   1.084       .  S
C918        C919   1.408       .  A
C918        H927   1.083       .  S
C919        C920   1.405       .  A
C920        H928   1.084       .  S
C929        C930   1.400       .  A
C929        C934   1.403       .  A
C929        H945   1.084       .  S
C930        C931   1.404       .  A
C930        H946   1.083       .  S
C931        C941   1.404       .  A
C931        C932   1.411       .  A
C932        C938   1.412       .  A
C932        C933   1.412       .  A
C933        C935   1.410       .  A
C933        C934   1.412       .  A
C934        C942   1.405       .  A
C935        C944   1.400       .  A
C935        C936   1.404       .  A
C936        C937   1.398       .  A
C936        H947   1.084       .  S
C937        C938   1.403       .  A
C937        H948   1.084       .  S
C938        C939   1.402       .  A
C939        C940   1.405       .  A
C939        H949   1.084       .  S
C940        C941   1.407       .  A
C941        H950   1.084       .  S
C942        C943   1.406       .  A
C942        H951   1.084       .  S
C943        C944   1.409       .  A
C944        H952   1.084       .  S
C953        C954   1.397       .  A
C953        C958   1.403       .  A
C953        H969   1.084       .  S
C954        C955   1.403       .  A
C954        H970   1.084       .  S
C955        C965   1.401       .  A
C955        C956   1.411       .  A
C956        C962   1.409       .  A
C956        C957   1.410       .  A
C957        C959   1.411       .  A
C957        C958   1.409       .  A
C958        C966   1.398       .  A
C959        C968   1.403       .  A
C959        C960   1.403       .  A
C960        C961   1.399       .  A
C960        H971   1.084       .  S
C961        C962   1.404       .  A
C961        H972   1.083       .  S
C962        C963   1.402       .  A
C963        C964   1.410       .  A
C963        H973   1.081       .  S
C964        C965   1.407       .  A
C965        H974   1.082       .  S
C966        C967   1.408       .  A
C966        H975   1.081       .  S
C967        C968   1.408       .  A
C968        H976   1.082       .  S
C977        C978   1.398       .  A
C977        C982   1.404       .  A
C977        H993   1.084       .  S
C978        C979   1.403       .  A
C978        H994   1.083       .  S
C979        C989   1.402       .  A
C979        C980   1.413       .  A
C980        C986   1.412       .  A
C980        C981   1.411       .  A
C981        C983   1.413       .  A
C981        C982   1.411       .  A
C982        C990   1.401       .  A
C983        C992   1.404       .  A
C983        C984   1.403       .  A
C984        C985   1.399       .  A
C984        H995   1.083       .  S
C985        C986   1.403       .  A
C985        H996   1.084       .  S
C986        C987   1.402       .  A
C987        C988   1.405       .  A
C987        H997   1.084   1_455  S
C988        C989   1.403       .  A
C989        H998   1.084       .  S
C990        C991   1.406       .  A
C990        H999   1.084       .  S
C991        C992   1.405       .  A
C992       H1000   1.084       .  S
C1001      C1002   1.396       .  A
C1001      C1006   1.403       .  A
C1001      H1017   1.084       .  S
C1002      C1003   1.402       .  A
C1002      H1018   1.084       .  S
C1003      C1013   1.400       .  A
C1003      C1004   1.413       .  A
C1004      C1010   1.410       .  A
C1004      C1005   1.412       .  A
C1005      C1007   1.413       .  A
C1005      C1006   1.409       .  A
C1006      C1014   1.397       .  A
C1007      C1016   1.409       .  A
C1007      C1008   1.405       .  A
C1008      C1009   1.402       .  A
C1008      H1019   1.083       .  S
C1009      C1010   1.405       .  A
C1009      H1020   1.083       .  S
C1010      C1011   1.406       .  A
C1011      C1012   1.410       .  A
C1011      H1021   1.084       .  S
C1012      C1013   1.403       .  A
C1013      H1022   1.084       .  S
C1014      C1015   1.408       .  A
C1014      H1023   1.084       .  S
C1015      C1016   1.409       .  A
C1016      H1024   1.084       .  S
C1025      C1026   1.398       .  A
C1025      C1030   1.403       .  A
C1025      H1041   1.084       .  S
C1026      C1027   1.403       .  A
C1026      H1042   1.083       .  S
C1027      C1037   1.403       .  A
C1027      C1028   1.410       .  A
C1028      C1034   1.410       .  A
C1028      C1029   1.412       .  A
C1029      C1031   1.411       .  A
C1029      C1030   1.411       .  A
C1030      C1038   1.402       .  A
C1031      C1040   1.404       .  A
C1031      C1032   1.404       .  A
C1032      C1033   1.400       .  A
C1032      H1043   1.084       .  S
C1033      C1034   1.404       .  A
C1033      H1044   1.083       .  S
C1034      C1035   1.404       .  A
C1035      C1036   1.411       .  A
C1035      H1045   1.082       .  S
C1036      C1037   1.408       .  A
C1037      H1046   1.082       .  S
C1038      C1039   1.406       .  A
C1038      H1047   1.084       .  S
C1039      C1040   1.407       .  A
C1040      H1048   1.084       .  S
C1049      C1050   1.398       .  A
C1049      C1054   1.403       .  A
C1049      H1065   1.084       .  S
C1050      C1051   1.403       .  A
C1050      H1066   1.084       .  S
C1051      C1061   1.404       .  A
C1051      C1052   1.412       .  A
C1052      C1058   1.409       .  A
C1052      C1053   1.412       .  A
C1053      C1055   1.413       .  A
C1053      C1054   1.410       .  A
C1054      C1062   1.400       .  A
C1055      C1064   1.405       .  A
C1055      C1056   1.403       .  A
C1056      C1057   1.399       .  A
C1056      H1067   1.083       .  S
C1057      C1058   1.404       .  A
C1057      H1068   1.084       .  S
C1058      C1059   1.402       .  A
C1059      C1060   1.410       .  A
C1059      H1069   1.082       .  S
C1060      C1061   1.408       .  A
C1061      H1070   1.082       .  S
C1062      C1063   1.407       .  A
C1062      H1071   1.084       .  S
C1063      C1064   1.405       .  A
C1064      H1072   1.084       .  S
C1073      C1074   1.398       .  A
C1073      C1078   1.403       .  A
C1073      H1089   1.084       .  S
C1074      C1075   1.403       .  A
C1074      H1090   1.083       .  S
C1075      C1085   1.401       .  A
C1075      C1076   1.410       .  A
C1076      C1082   1.411       .  A
C1076      C1077   1.410       .  A
C1077      C1079   1.412       .  A
C1077      C1078   1.411       .  A
C1078      C1086   1.399       .  A
C1079      C1088   1.402       .  A
C1079      C1080   1.403       .  A
C1080      C1081   1.398       .  A
C1080      H1091   1.083       .  S
C1081      C1082   1.403       .  A
C1081      H1092   1.084       .  S
C1082      C1083   1.401       .  A
C1083      C1084   1.407       .  A
C1083      H1093   1.082       .  S
C1084      C1085   1.408       .  A
C1085      H1094   1.082       .  S
C1086      C1087   1.406       .  A
C1086      H1095   1.084       .  S
C1087      C1088   1.405       .  A
C1088      H1096   1.084       .  S
C1097      C1098   1.401       .  A
C1097      C1102   1.404       .  A
C1097      H1113   1.084       .  S
C1098      C1099   1.405       .  A
C1098      H1114   1.083       .  S
C1099      C1109   1.407       .  A
C1099      C1100   1.411       .  A
C1100      C1106   1.409       .  A
C1100      C1101   1.412       .  A
C1101      C1103   1.412       .  A
C1101      C1102   1.412       .  A
C1102      C1110   1.405       .  A
C1103      C1112   1.399       .  A
C1103      C1104   1.402       .  A
C1104      C1105   1.397       .  A
C1104      H1115   1.084       .  S
C1105      C1106   1.404       .  A
C1105      H1116   1.084       .  S
C1106      C1107   1.400       .  A
C1107      C1108   1.409       .  A
C1107      H1117   1.081       .  S
C1108      C1109   1.410       .  A
C1109      H1118   1.082       .  S
C1110      C1111   1.405       .  A
C1110      H1119   1.084       .  S
C1111      C1112   1.403       .  A
C1112      H1120   1.084       .  S
C1121      C1122   1.399       .  A
C1121      C1126   1.403       .  A
C1121      H1137   1.083       .  S
C1122      C1123   1.403       .  A
C1122      H1138   1.084       .  S
C1123      C1133   1.403       .  A
C1123      C1124   1.411       .  A
C1124      C1130   1.412       .  A
C1124      C1125   1.412       .  A
C1125      C1127   1.412       .  A
C1125      C1126   1.412       .  A
C1126      C1134   1.402       .  A
C1127      C1136   1.404       .  A
C1127      C1128   1.404       .  A
C1128      C1129   1.400       .  A
C1128      H1139   1.084       .  S
C1129      C1130   1.404       .  A
C1129      H1140   1.083       .  S
C1130      C1131   1.405       .  A
C1131      C1132   1.406       .  A
C1131      H1141   1.084       .  S
C1132      C1133   1.406       .  A
C1133      H1142   1.084       .  S
C1134      C1135   1.406       .  A
C1134      H1143   1.084       .  S
C1135      C1136   1.406       .  A
C1136      H1144   1.084       .  S
C1145      C1146   1.398       .  A
C1145      C1150   1.403       .  A
C1145      H1161   1.083       .  S
C1146      C1147   1.403       .  A
C1146      H1162   1.084       .  S
C1147      C1157   1.402       .  A
C1147      C1148   1.411       .  A
C1148      C1154   1.411       .  A
C1148      C1149   1.412       .  A
C1149      C1151   1.411       .  A
C1149      C1150   1.410       .  A
C1150      C1158   1.402       .  A
C1151      C1160   1.403       .  A
C1151      C1152   1.404       .  A
C1152      C1153   1.399       .  A
C1152      H1163   1.084       .  S
C1153      C1154   1.404       .  A
C1153      H1164   1.083       .  S
C1154      C1155   1.403       .  A
C1155      C1156   1.408       .  A
C1155      H1165   1.083       .  S
C1156      C1157   1.407       .  A
C1157      H1166   1.083       .  S
C1158      C1159   1.408       .  A
C1158      H1167   1.082       .  S
C1159      C1160   1.408       .  A
C1160      H1168   1.083       .  S
C1169      C1170   1.398       .  A
C1169      C1174   1.403       .  A
C1169      H1185   1.084       .  S
C1170      C1171   1.403       .  A
C1170      H1186   1.084       .  S
C1171      C1181   1.402       .  A
C1171      C1172   1.412   1_565  A
C1172      C1178   1.411       .  A
C1172      C1173   1.412       .  A
C1173      C1175   1.413       .  A
C1173      C1174   1.412   1_545  A
C1174      C1182   1.401       .  A
C1175      C1184   1.405       .  A
C1175      C1176   1.404       .  A
C1176      C1177   1.400       .  A
C1176      H1187   1.083       .  S
C1177      C1178   1.404       .  A
C1177      H1188   1.084       .  S
C1178      C1179   1.404       .  A
C1179      C1180   1.408       .  A
C1179      H1189   1.084       .  S
C1180      C1181   1.405   1_545  A
C1181      H1190   1.084       .  S
C1182      C1183   1.403   1_565  A
C1182      H1191   1.085       .  S
C1183      C1184   1.404       .  A
C1184      H1192   1.084       .  S
C1193      C1194   1.397       .  A
C1193      C1198   1.403       .  A
C1193      H1209   1.084       .  S
C1194      C1195   1.403       .  A
C1194      H1210   1.084       .  S
C1195      C1205   1.400       .  A
C1195      C1196   1.410       .  A
C1196      C1202   1.411       .  A
C1196      C1197   1.413       .  A
C1197      C1199   1.411       .  A
C1197      C1198   1.410       .  A
C1198      C1206   1.400       .  A
C1199      C1208   1.407       .  A
C1199      C1200   1.405       .  A
C1200      C1201   1.401       .  A
C1200      H1211   1.083       .  S
C1201      C1202   1.405       .  A
C1201      H1212   1.083       .  S
C1202      C1203   1.407       .  A
C1203      C1204   1.411       .  A
C1203      H1213   1.082       .  S
C1204      C1205   1.408       .  A
C1205      H1214   1.081       .  S
C1206      C1207   1.407       .  A
C1206      H1215   1.082       .  S
C1207      C1208   1.410       .  A
C1208      H1216   1.082       .  S
C1217      C1218   1.396       .  A
C1217      C1222   1.401       .  A
C1217      H1233   1.084       .  S
C1218      C1219   1.402       .  A
C1218      H1234   1.084       .  S
C1219      C1229   1.398       .  A
C1219      C1220   1.411       .  A
C1220      C1226   1.412       .  A
C1220      C1221   1.410       .  A
C1221      C1223   1.412       .  A
C1221      C1222   1.412       .  A
C1222      C1230   1.398       .  A
C1223      C1232   1.403       .  A
C1223      C1224   1.404       .  A
C1224      C1225   1.401       .  A
C1224      H1235   1.084       .  S
C1225      C1226   1.404       .  A
C1225      H1236   1.083       .  S
C1226      C1227   1.405       .  A
C1227      C1228   1.407       .  A
C1227      H1237   1.084       .  S
C1228      C1229   1.404       .  A
C1229      H1238   1.084       .  S
C1230      C1231   1.401       .  A
C1230      H1239   1.085       .  S
C1231      C1232   1.406       .  A
C1232      H1240   1.084       .  S
C1241      C1242   1.400       .  A
C1241      C1246   1.404       .  A
C1241      H1257   1.083       .  S
C1242      C1243   1.404       .  A
C1242      H1258   1.083       .  S
C1243      C1253   1.405       .  A
C1243      C1244   1.411       .  A
C1244      C1250   1.411       .  A
C1244      C1245   1.411       .  A
C1245      C1247   1.411       .  A
C1245      C1246   1.411       .  A
C1246      C1254   1.404       .  A
C1247      C1256   1.400       .  A
C1247      C1248   1.402       .  A
C1248      C1249   1.397       .  A
C1248      H1259   1.084       .  S
C1249      C1250   1.403       .  A
C1249      H1260   1.084       .  S
C1250      C1251   1.400       .  A
C1251      C1252   1.406       .  A
C1251      H1261   1.083       .  S
C1252      C1253   1.409       .  A
C1253      H1262   1.083       .  S
C1254      C1255   1.409       .  A
C1254      H1263   1.083       .  S
C1255      C1256   1.405       .  A
C1256      H1264   1.083       .  S
C1265      C1266   1.399       .  A
C1265      C1270   1.403       .  A
C1265      H1281   1.084       .  S
C1266      C1267   1.404       .  A
C1266      H1282   1.084       .  S
C1267      C1277   1.403       .  A
C1267      C1268   1.411       .  A
C1268      C1274   1.412       .  A
C1268      C1269   1.412       .  A
C1269      C1271   1.412       .  A
C1269      C1270   1.412       .  A
C1270      C1278   1.403       .  A
C1271      C1280   1.402       .  A
C1271      C1272   1.403       .  A
C1272      C1273   1.399       .  A
C1272      H1283   1.083       .  S
C1273      C1274   1.404       .  A
C1273      H1284   1.084       .  S
C1274      C1275   1.403       .  A
C1275      C1276   1.406       .  A
C1275      H1285   1.084       .  S
C1276      C1277   1.406       .  A
C1277      H1286   1.084       .  S
C1278      C1279   1.404       .  A
C1278      H1287   1.084       .  S
C1279      C1280   1.404       .  A
C1280      H1288   1.084       .  S
C1289      C1290   1.397       .  A
C1289      C1294   1.403       .  A
C1289      H1305   1.084       .  S
C1290      C1291   1.402       .  A
C1290      H1306   1.084       .  S
C1291      C1301   1.401       .  A
C1291      C1292   1.412       .  A
C1292      C1298   1.411       .  A
C1292      C1293   1.412       .  A
C1293      C1295   1.412       .  A
C1293      C1294   1.410       .  A
C1294      C1302   1.401       .  A
C1295      C1304   1.405       .  A
C1295      C1296   1.404       .  A
C1296      C1297   1.400       .  A
C1296      H1307   1.084       .  S
C1297      C1298   1.404       .  A
C1297      H1308   1.084       .  S
C1298      C1299   1.404       .  A
C1299      C1300   1.409       .  A
C1299      H1309   1.084       .  S
C1300      C1301   1.404       .  A
C1301      H1310   1.084       .  S
C1302      C1303   1.407       .  A
C1302      H1311   1.083       .  S
C1303      C1304   1.408       .  A
C1304      H1312   1.083       .  S
C1313      C1314   1.398       .  A
C1313      C1318   1.403       .  A
C1313      H1329   1.083       .  S
C1314      C1315   1.403       .  A
C1314      H1330   1.084       .  S
C1315      C1325   1.400       .  A
C1315      C1316   1.409       .  A
C1316      C1322   1.413       .  A
C1316      C1317   1.413       .  A
C1317      C1319   1.410       .  A
C1317      C1318   1.411       .  A
C1318      C1326   1.402       .  A
C1319      C1328   1.405       .  A
C1319      C1320   1.405       .  A
C1320      C1321   1.401       .  A
C1320      H1331   1.083       .  S
C1321      C1322   1.404       .  A
C1321      H1332   1.084       .  S
C1322      C1323   1.408       .  A
C1323      C1324   1.408       .  A
C1323      H1333   1.084       .  S
C1324      C1325   1.409       .  A
C1325      H1334   1.084       .  S
C1326      C1327   1.407       .  A
C1326      H1335   1.082       .  S
C1327      C1328   1.410       .  A
C1328      H1336   1.083       .  S
C1337      C1338   1.396       .  A
C1337      C1342   1.403       .  A
C1337      H1353   1.084       .  S
C1338      C1339   1.402       .  A
C1338      H1354   1.084       .  S
C1339      C1349   1.401       .  A
C1339      C1340   1.412       .  A
C1340      C1346   1.410       .  A
C1340      C1341   1.411       .  A
C1341      C1343   1.413       .  A
C1341      C1342   1.409       .  A
C1342      C1350   1.397       .  A
C1343      C1352   1.407       .  A
C1343      C1344   1.404       .  A
C1344      C1345   1.400       .  A
C1344      H1355   1.084       .  S
C1345      C1346   1.404       .  A
C1345      H1356   1.084       .  S
C1346      C1347   1.403       .  A
C1347      C1348   1.409       .  A
C1347      H1357   1.083       .  S
C1348      C1349   1.405       .  A
C1349      H1358   1.083       .  S
C1350      C1351   1.408       .  A
C1350      H1359   1.084       .  S
C1351      C1352   1.408       .  A
C1352      H1360   1.084       .  S
C1361      C1362   1.401       .  A
C1361      C1366   1.405       .  A
C1361      H1377   1.083       .  S
C1362      C1363   1.404       .  A
C1362      H1378   1.084       .  S
C1363      C1373   1.406       .  A
C1363      C1364   1.411       .  A
C1364      C1370   1.410       .  A
C1364      C1365   1.413       .  A
C1365      C1367   1.410       .  A
C1365      C1366   1.410       .  A
C1366      C1374   1.406       .  A
C1367      C1376   1.402       .  A
C1367      C1368   1.403       .  A
C1368      C1369   1.398       .  A
C1368      H1379   1.084       .  S
C1369      C1370   1.403       .  A
C1369      H1380   1.083       .  S
C1370      C1371   1.402       .  A
C1371      C1372   1.409       .  A
C1371      H1381   1.082       .  S
C1372      C1373   1.410       .  A
C1373      H1382   1.083       .  S
C1374      C1375   1.410       .  A
C1374      H1383   1.082       .  S
C1375      C1376   1.409       .  A
C1376      H1384   1.082       .  S
C1385      C1386   1.398       .  A
C1385      C1390   1.404       .  A
C1385      H1401   1.084       .  S
C1386      C1387   1.403       .  A
C1386      H1402   1.084       .  S
C1387      C1397   1.402       .  A
C1387      C1388   1.411       .  A
C1388      C1394   1.412   1_545  A
C1388      C1389   1.415       .  A
C1389      C1391   1.411   1_545  A
C1389      C1390   1.410       .  A
C1390      C1398   1.403       .  A
C1391      C1400   1.410       .  A
C1391      C1392   1.405       .  A
C1392      C1393   1.403       .  A
C1392      H1403   1.083       .  S
C1393      C1394   1.405       .  A
C1393      H1404   1.083       .  S
C1394      C1395   1.409       .  A
C1395      C1396   1.408   1_565  A
C1395      H1405   1.084       .  S
C1396      C1397   1.406       .  A
C1397      H1406   1.084       .  S
C1398      C1399   1.410       .  A
C1398      H1407   1.082       .  S
C1399      C1400   1.411   1_545  A
C1400      H1408   1.082       .  S
C1409      C1410   1.401       .  A
C1409      C1414   1.404       .  A
C1409      H1425   1.084       .  S
C1410      C1411   1.405       .  A
C1410      H1426   1.083       .  S
C1411      C1421   1.405       .  A
C1411      C1412   1.410       .  A
C1412      C1418   1.413       .  A
C1412      C1413   1.414       .  A
C1413      C1415   1.409       .  A
C1413      C1414   1.413       .  A
C1414      C1422   1.408       .  A
C1415      C1424   1.401       .  A
C1415      C1416   1.404       .  A
C1416      C1417   1.399       .  A
C1416      H1427   1.084       .  S
C1417      C1418   1.403       .  A
C1417      H1428   1.084       .  S
C1418      C1419   1.405       .  A
C1419      C1420   1.406       .  A
C1419      H1429   1.084       .  S
C1420      C1421   1.409       .  A
C1421      H1430   1.084       .  S
C1422      C1423   1.408       .  A
C1422      H1431   1.084       .  S
C1423      C1424   1.410       .  A
C1424      H1432   1.084       .  S
