geometry optimzed in LAMMPS
_audit_creation_date              2020-11-30 
_audit_creation_method            'lammps2cif' 
_symmetry_space_group_name_H-M    'P1' 
_symmetry_Int_Tables_number       1 
_symmetry_cell_setting            triclinic 
loop_ 
_symmetry_equiv_pos_as_xyz 
  x,y,z 
_cell_length_a                    33.71199624 
_cell_length_b                    35.00270705886353 
_cell_length_c                    75.38363080438694 
_cell_angle_alpha                 89.84232563064225 
_cell_angle_beta                  89.95744703826398 
_cell_angle_gamma                 89.36431934788006 
loop_ 
_atom_site_label 
_atom_site_type_symbol 
_atom_site_fract_x 
_atom_site_fract_y 
_atom_site_fract_z 
_atom_site_charge 
O1          O  0.43341428  0.40294103  0.25778797    -0.57100
C2          C  0.32240317  0.41847897  0.22600376     0.75600
O3          O  0.43325656  0.32769519  0.24573192    -0.58200
C4          C  0.41857424  0.42149236  0.27057851     0.75500
C5          C  0.32047781  0.31529992  0.27197421     0.77900
Cd6        Cd  0.37017899  0.36740050  0.24964127     1.37500
O7          O  0.33104785  0.42773510  0.24173390    -0.57100
O8          O  0.35786862  0.31626437  0.27266206    -0.55900
C9          C  0.42864960  0.32179893  0.22933524     0.77900
O10         O  0.30513827  0.33665004  0.26025845    -0.58200
O11         O  0.33613705  0.38626404  0.22112304    -0.56700
O12         O  0.38163139  0.41727407  0.27270319    -0.56700
O13         O  0.39628732  0.33424388  0.22280055    -0.55800
N14         N  0.47455091  0.03285320  0.66062082    -0.35900
N15         N  0.52260933  0.06728888  0.68717121    -0.56400
N16         N  0.48534307  0.01738473  0.71396716    -0.35800
N17         N  0.43933904  0.98128263  0.68553565    -0.56400
C18         C  0.49890204  0.05401444  0.65054161     0.27700
C19         C  0.45605041  0.00854154  0.64967173     0.27700
C20         C  0.51676987  0.03100339  0.72327108     0.27700
C21         C  0.47152140  0.98571153  0.72240703     0.27700
C22         C  0.52593454  0.09411703  0.67427574     0.36400
C23         C  0.03579828  0.08347345  0.70224524     0.36400
C24         C  0.41331342  0.97837980  0.67198433     0.36400
C25         C  0.42045125  0.46811510  0.70002112     0.36400
C26         C  0.49682976  0.04228860  0.63299988    -0.21100
C27         C  0.46965203  0.01340211  0.63245448    -0.21100
C28         C  0.52245245  0.00803320  0.73810432    -0.21100
C29         C  0.49406132  0.97960021  0.73755965    -0.21100
C30         C  0.04173774  0.12734393  0.68100113    -0.22200
C31         C  0.04805473  0.12061065  0.69875263    -0.22200
C32         C  0.37792400  0.46311767  0.67771842    -0.22200
C33         C  0.38238224  0.45659317  0.69554064    -0.22200
C34         C  0.51641540  0.08796223  0.65632641    -0.17500
C35         C  0.42188432  0.98836831  0.65437368    -0.17500
C36         C  0.43839191  0.46324102  0.71683227    -0.17500
C37         C  0.03957517  0.06426599  0.71878932    -0.17500
H38         H  0.51136547  0.05489670  0.62163016     0.15400
H39         H  0.45904640  0.99947515  0.62059234     0.15400
H40         H  0.04506406  0.01130801  0.74821816     0.15400
H41         H  0.49064332  0.45690258  0.74717778     0.15400
H42         H  0.04833427  0.15339174  0.67386430     0.13700
H43         H  0.06002045  0.14096183  0.70805190     0.13700
H44         H  0.35181642  0.45717866  0.66988651     0.13700
H45         H  0.35997117  0.44486664  0.70421060     0.13700
H46         H  0.46491599  0.04010964  0.67328970     0.26900
H47         H  0.47208101  0.03073657  0.70312895     0.26900
C48         C  0.23541560  0.49145934  0.49239749     0.04300
S49         S  0.26377112  0.45591678  0.48053253    -0.09700
C50         C  0.24037488  0.46728631  0.45971623    -0.00900
C51         C  0.21303445  0.49590515  0.45941384    -0.00900
S52         S  0.20068994  0.01967084  0.47979665    -0.09700
C53         C  0.23754961  0.02432151  0.54210377    -0.00900
C54         C  0.26358025  0.99474890  0.54282845    -0.00900
S55         S  0.27209093  0.46705398  0.52314936    -0.09700
C56         C  0.23982999  0.99693391  0.51003208     0.04300
S57         S  0.21359565  0.03465878  0.52139449    -0.09700
N58         N  0.99220022  0.49526884  0.28868564    -0.35900
N59         N  0.04701871  0.52482218  0.31573773    -0.56400
N60         N  0.02235391  0.46744927  0.33973329    -0.41800
N61         N  0.96848526  0.43658809  0.31385721    -0.56400
C62         C  0.01745536  0.51633804  0.27857788     0.27700
C63         C  0.97261253  0.47052932  0.27793476     0.27700
C64         C  0.05488204  0.48088605  0.34790936     0.27700
C65         C  0.01512772  0.43285872  0.34680284     0.27700
C66         C  0.04905978  0.05224339  0.30328761     0.36400
C67         C  0.06142787  0.54000947  0.33085653     0.36400
C68         C  0.43959410  0.43226621  0.30176785     0.36400
C69         C  0.95690323  0.41720608  0.32850276     0.36400
C70         C  0.01313314  0.50538427  0.26101484    -0.21100
C71         C  0.98472905  0.47693635  0.26058568    -0.21100
C72         C  0.06898850  0.45439028  0.36007725    -0.21100
C73         C  0.04370774  0.42409152  0.35950882    -0.21100
C74         C  0.06456187  0.08532094  0.31064305    -0.22200
C75         C  0.07221981  0.07751602  0.32820984    -0.22200
C76         C  0.40937791  0.41021305  0.30896970    -0.22200
C77         C  0.42059780  0.40041115  0.32587873    -0.22200
C78         C  0.04330274  0.04559763  0.28498856    -0.17500
C79         C  0.44338223  0.44323742  0.28365694    -0.17500
C80         C  0.98043443  0.41191095  0.34374630    -0.17500
C81         C  0.06869639  0.51841956  0.34625217    -0.17500
H82         H  0.02856444  0.01668446  0.24964546     0.15400
H83         H  0.47474911  0.46211512  0.24886052     0.15400
H84         H  0.09407954  0.45724557  0.36886954     0.15400
H85         H  0.04565209  0.39924507  0.36801405     0.15400
H86         H  0.07083763  0.11193118  0.30390714     0.13700
H87         H  0.08572987  0.09656427  0.33768569     0.13700
H88         H  0.38209908  0.40133491  0.30290278     0.13700
H89         H  0.40419972  0.38273125  0.33503316     0.13700
H90         H  0.98651098  0.49946230  0.30211590     0.26900
H91         H  0.00258921  0.48348588  0.33205412     0.26900
C92         C  0.01027542  0.26422211  0.49287383     0.04300
S93         S  0.48089438  0.29613308  0.47988453    -0.09700
C94         C  0.00449555  0.28269444  0.45965319    -0.00900
C95         C  0.03294499  0.25523049  0.46027926    -0.00900
S96         S  0.04681385  0.23586293  0.48145056    -0.09700
C97         C  0.50608931  0.23890864  0.54345606    -0.00900
C98         C  0.47685405  0.26547433  0.54235749    -0.00900
S99         S  0.46768744  0.28863237  0.52160586    -0.09700
C100        C  0.50559418  0.26116309  0.51063333     0.04300
S101        S  0.03477087  0.22947144  0.52393252    -0.09700
N102        N  0.26967758  0.22921437  0.65847077    -0.35900
N103        N  0.29837358  0.28386906  0.68359964    -0.56400
N104        N  0.24175608  0.25662708  0.71020812    -0.35800
N105        N  0.21515843  0.19959362  0.68396271    -0.56400
C106        C  0.30407873  0.23981983  0.65086792     0.27700
C107        C  0.25886096  0.19631408  0.65068390     0.27700
C108        C  0.26735671  0.27714493  0.72036934     0.27700
C109        C  0.22311350  0.23079665  0.72082018     0.27700
C110        C  0.31478474  0.29770305  0.66856152     0.36400
C111        C  0.30048075  0.31194983  0.69573497     0.36400
C112        C  0.20016817  0.18355674  0.66905972     0.36400
C113        C  0.18798694  0.19483171  0.69693719     0.36400
C114        C  0.31564424  0.21307361  0.63828470    -0.21100
C115        C  0.28699409  0.18549827  0.63816873    -0.21100
C116        C  0.26407595  0.26478523  0.73779762    -0.21100
C117        C  0.23637767  0.23576205  0.73808282    -0.21100
C118        C  0.32698826  0.33488797  0.67094882    -0.22200
C119        C  0.31764816  0.34410154  0.68816834    -0.22200
C120        C  0.16298210  0.16900032  0.67242896    -0.22200
C121        C  0.15527188  0.17597170  0.69008861    -0.22200
C122        C  0.32194003  0.27552593  0.65336658    -0.17500
C123        C  0.22189475  0.17874005  0.65313377    -0.17500
C124        C  0.19453815  0.20312214  0.71519227    -0.17500
C125        C  0.29357574  0.30634693  0.71407546    -0.17500
H126        H  0.34125663  0.21404232  0.62963844     0.15400
H127        H  0.28626521  0.16099059  0.62945330     0.15400
H128        H  0.28048445  0.27488577  0.74914422     0.15400
H129        H  0.22780394  0.21965912  0.74970459     0.15400
H130        H  0.34189550  0.35301837  0.66144839     0.13700
H131        H  0.32399318  0.37101191  0.69455385     0.13700
H132        H  0.14403740  0.15394690  0.66329699     0.13700
H133        H  0.12874986  0.16761041  0.69712054     0.13700
H134        H  0.25151116  0.24643516  0.66635653     0.26900
H135        H  0.23574457  0.26138096  0.69683516     0.26900
N136        N  0.24913715  0.24038102  0.29085503    -0.35900
N137        N  0.27570768  0.29699268  0.31666885    -0.56400
N138        N  0.22455417  0.26370782  0.34276103    -0.35800
N139        N  0.19692065  0.20809685  0.31809010    -0.56400
C140        C  0.26729605  0.26624314  0.28008072     0.27700
C141        C  0.22416025  0.21890146  0.28083020     0.27700
C142        C  0.23229092  0.29776225  0.35025447     0.27700
C143        C  0.19135811  0.25057968  0.35057599     0.27700
C144        C  0.30201552  0.30393862  0.30354568     0.36400
C145        C  0.28846118  0.31592081  0.33122977     0.36400
C146        C  0.19468584  0.18100923  0.30552340     0.36400
C147        C  0.18395310  0.19208655  0.33333777     0.36400
C148        C  0.25436270  0.26038666  0.26284093    -0.21100
C149        C  0.22706407  0.23099857  0.26333154    -0.21100
C150        C  0.20343761  0.30649668  0.36280681    -0.21100
C151        C  0.17728690  0.27687736  0.36275769    -0.21100
C152        C  0.33165886  0.32756441  0.30999602    -0.22200
C153        C  0.32300753  0.33505375  0.32748708    -0.22200
C154        C  0.18064296  0.14730196  0.31294503    -0.22200
C155        C  0.17403058  0.15435331  0.33066657    -0.22200
C156        C  0.29642344  0.29361940  0.28544525    -0.17500
C157        C  0.19977248  0.18826302  0.28719491    -0.17500
C158        C  0.17723407  0.21311907  0.34890112    -0.17500
C159        C  0.26674239  0.31912595  0.34717966    -0.17500
H160        H  0.26340200  0.27575068  0.25107162     0.15400
H161        H  0.21127221  0.21994845  0.25200324     0.15400
H162        H  0.20157597  0.33114944  0.37138843     0.15400
H163        H  0.15138701  0.27423392  0.37105239     0.15400
H164        H  0.35654583  0.33919785  0.30289422     0.13700
H165        H  0.33942703  0.35341099  0.33628196     0.13700
H166        H  0.17488921  0.12066217  0.30621210     0.13700
H167        H  0.16189086  0.13460978  0.34026992     0.13700
H168        H  0.25578303  0.23566386  0.30415625     0.26900
H169        H  0.24402641  0.24777794  0.33490735     0.26900
C170        C  0.48135443  0.00641202  0.99342464     0.04300
S171        S  0.45045737  0.47591678  0.98023212    -0.09700
C172        C  0.46372459  0.99961653  0.95999093    -0.00900
C173        C  0.48842131  0.02969473  0.96083726    -0.00900
S174        S  0.00825183  0.04268855  0.98192755    -0.09700
C175        C  0.00726834  0.50600972  0.04403469    -0.00900
C176        C  0.98236974  0.47607088  0.04340811    -0.00900
S177        S  0.45853228  0.46498042  0.02277865    -0.09700
C178        C  0.98435190  0.50212769  0.01119170     0.04300
S179        S  0.01590194  0.03252151  0.02408742    -0.09700
N180        N  0.28149116  0.01373383  0.84191907    -0.35900
N181        N  0.22685706  0.05250037  0.81743811    -0.56400
N182        N  0.25963765  0.00624429  0.78864716    -0.35800
N183        N  0.31037482  0.96403359  0.81466379    -0.56400
C184        C  0.25897182  0.03431030  0.85326188     0.27700
C185        C  0.30298139  0.98868664  0.85177019     0.27700
C186        C  0.22884937  0.02371361  0.78005038     0.27700
C187        C  0.27253041  0.97634809  0.77860851     0.27700
C188        C  0.22350513  0.07608491  0.83158530     0.36400
C189        C  0.20970513  0.07096811  0.80359709     0.36400
C190        C  0.33803574  0.45607492  0.82721756     0.36400
C191        C  0.32507189  0.45049112  0.79923063     0.36400
C192        C  0.26578080  0.02191558  0.87049601    -0.21100
C193        C  0.29344444  0.99321324  0.86955566    -0.21100
C194        C  0.22254991  0.00488234  0.76414643    -0.21100
C195        C  0.24997218  0.47517177  0.76320489    -0.21100
C196        C  0.20343322  0.10924424  0.82690881    -0.22200
C197        C  0.19463592  0.10606230  0.80920484    -0.22200
C198        C  0.36999987  0.43677481  0.81992996    -0.22200
C199        C  0.36214533  0.43367390  0.80219528    -0.22200
C200        C  0.23728776  0.06761879  0.84882883    -0.17500
C201        C  0.33442231  0.96562385  0.84530526    -0.17500
C202        C  0.30505956  0.45116930  0.78264564    -0.17500
C203        C  0.20687741  0.05653902  0.78603366    -0.17500
H204        H  0.25348809  0.03335921  0.88265346     0.15400
H205        H  0.30576196  0.97855589  0.88091495     0.15400
H206        H  0.20035253  0.01167092  0.75423151     0.15400
H207        H  0.25287571  0.45498065  0.75242605     0.15400
H208        H  0.19597304  0.13321793  0.83536675     0.13700
H209        H  0.17951914  0.12763105  0.80134401     0.13700
H210        H  0.39646620  0.42654753  0.82662633     0.13700
H211        H  0.38200173  0.42087448  0.79257238     0.13700
H212        H  0.28692151  0.02105979  0.82878708     0.26900
H213        H  0.27350039  0.01611928  0.80000631     0.26900
N214        N  0.46856422  0.23103733  0.84149497    -0.35900
N215        N  0.52351256  0.19574080  0.81664025    -0.56400
N216        N  0.49082319  0.24570139  0.78853009    -0.35800
N217        N  0.43962171  0.28407907  0.81498693    -0.56400
C218        C  0.49099382  0.20926556  0.85249541     0.27700
C219        C  0.44684383  0.25484108  0.85182124     0.27700
C220        C  0.52260804  0.23001029  0.77993070     0.27700
C221        C  0.47746768  0.27624632  0.77892614     0.27700
C222        C  0.52562785  0.16974619  0.82999341     0.36400
C223        C  0.53970699  0.17888067  0.80220148     0.36400
C224        C  0.41301542  0.29196133  0.82800709     0.36400
C225        C  0.42536755  0.30079579  0.80009118     0.36400
C226        C  0.48391626  0.21966417  0.86992911    -0.21100
C227        C  0.45591881  0.24796523  0.86952702    -0.21100
C228        C  0.52927755  0.25085754  0.76454868    -0.21100
C229        C  0.50085127  0.27975637  0.76388728    -0.21100
C230        C  0.04372925  0.13641909  0.82421443    -0.22200
C231        C  0.05258100  0.14211273  0.80662008    -0.22200
C232        C  0.38246335  0.31464694  0.82157580    -0.22200
C233        C  0.38986972  0.31981727  0.80390358    -0.22200
C234        C  0.51261462  0.17637594  0.84751065    -0.17500
C235        C  0.41628665  0.27965510  0.84577792    -0.17500
C236        C  0.44419497  0.30034709  0.78320124    -0.17500
C237        C  0.54455677  0.19656219  0.78531022    -0.17500
H238        H  0.49603644  0.20696888  0.88187562     0.15400
H239        H  0.44331319  0.26076324  0.88124452     0.15400
H240        H  0.55223863  0.24586913  0.75476457     0.15400
H241        H  0.49794342  0.30110736  0.75354479     0.15400
H242        H  0.04983357  0.11078573  0.83184853     0.13700
H243        H  0.06640373  0.12114234  0.79802512     0.13700
H244        H  0.35714462  0.32586129  0.82879449     0.13700
H245        H  0.37065378  0.33547769  0.79493051     0.13700
H246        H  0.46346328  0.22553285  0.82821800     0.26900
H247        H  0.47674513  0.23413149  0.79944853     0.26900
O248        O  0.14859758  0.05362293  0.24173018    -0.57100
C249        C  0.17486858  0.16466690  0.27492756     0.75600
O250        O  0.08609964  0.18014106  0.24646393    -0.58200
C251        C  0.17281545  0.06705554  0.23059619     0.75500
C252        C  0.06928042  0.06849011  0.27290278     0.77900
Cd253      Cd  0.12272125  0.11773916  0.25242344     1.37500
O254        O  0.18667478  0.15267760  0.26000576    -0.57100
O255        O  0.05733589  0.08398167  0.25866325    -0.55900
C256        C  0.07666105  0.17209899  0.23070990     0.77900
O257        O  0.10496985  0.07516724  0.27710643    -0.58200
O258        O  0.14014403  0.15467409  0.27927532    -0.56700
O259        O  0.17561807  0.10305489  0.23036565    -0.56700
O260        O  0.08548209  0.13856707  0.22569956    -0.55800
N261        N  0.24556172  0.49427037  0.21079098    -0.35900
N262        N  0.18583500  0.02430956  0.18582387    -0.56400
N263        N  0.21781149  0.47611809  0.15891844    -0.35800
N264        N  0.27672990  0.44531237  0.18278743    -0.56400
C265        C  0.21956735  0.01252347  0.22180850     0.27700
C266        C  0.26643519  0.46783361  0.22044103     0.27700
C267        C  0.18175594  0.48435809  0.15203621     0.27700
C268        C  0.23204318  0.44544941  0.15012526     0.27700
C269        C  0.18068065  0.04951784  0.19912745     0.36400
C270        C  0.16474914  0.03783705  0.17182572     0.36400
C271        C  0.30490162  0.44039579  0.19531286     0.36400
C272        C  0.29363100  0.43644990  0.16702478     0.36400
C273        C  0.22453262  0.99804105  0.23880237    -0.21100
C274        C  0.25352765  0.46969776  0.23792383    -0.21100
C275        C  0.17259378  0.45822948  0.13891204    -0.21100
C276        C  0.20435045  0.43341184  0.13777222    -0.21100
C277        C  0.15586051  0.07918353  0.19341201    -0.22200
C278        C  0.14600811  0.07182131  0.17609906    -0.22200
C279        C  0.34021301  0.42863018  0.18742330    -0.22200
C280        C  0.33321653  0.42679598  0.16941374    -0.22200
C281        C  0.19284844  0.04286292  0.21690441    -0.17500
C282        C  0.29764917  0.44343912  0.21378590    -0.17500
C283        C  0.27171040  0.43246018  0.15117545    -0.17500
C284        C  0.15946677  0.51751042  0.15591483    -0.17500
H285        H  0.20868309  0.00662933  0.25064499     0.15400
H286        H  0.26362285  0.45255664  0.24901384     0.15400
H287        H  0.14638722  0.45785032  0.13063102     0.15400
H288        H  0.20749924  0.41025167  0.12837061     0.15400
H289        H  0.14426281  0.10284338  0.20101753     0.13700
H290        H  0.12614544  0.08868942  0.16786362     0.13700
H291        H  0.36805405  0.42198887  0.19393833     0.13700
H292        H  0.35421083  0.41764218  0.15937180     0.13700
H293        H  0.25096099  0.50191157  0.19766743     0.26900
H294        H  0.23459680  0.49390856  0.16695410     0.26900
C295        C  0.26023101  0.24274134  0.99270609     0.04300
S296        S  0.22830593  0.21123373  0.98073939    -0.09700
C297        C  0.25321480  0.22054443  0.96022638    -0.00900
C298        C  0.28060132  0.24831828  0.95968849    -0.00900
S299        S  0.29431137  0.27097128  0.97999187    -0.09700
C300        C  0.26469313  0.27202655  0.04272246    -0.00900
C301        C  0.23468423  0.24599736  0.04322785    -0.00900
S302        S  0.22181337  0.22113156  0.02322250    -0.09700
C303        C  0.25856143  0.24529663  0.01052129     0.04300
S304        S  0.29385834  0.27222157  0.02270595    -0.09700
O305        O  0.06309251  0.08728164  0.74739016    -0.57100
C306        C  0.17920959  0.07757825  0.77368730     0.75600
O307        O  0.16500329  0.14417769  0.72511105    -0.58200
C308        C  0.06968345  0.08066093  0.73118715     0.75500
C309        C  0.07358517  0.17758007  0.77296420     0.77900
Cd310      Cd  0.12580110  0.12728900  0.75185649     1.37500
O311        O  0.18977162  0.08993183  0.75867980    -0.57100
O312        O  0.10670409  0.16479374  0.77851596    -0.55900
C313        C  0.17247208  0.17876255  0.72842411     0.77900
O314        O  0.06573558  0.17043790  0.75688672    -0.58200
O315        O  0.14421746  0.08652466  0.77820719    -0.56700
O316        O  0.10265403  0.09226554  0.72541767    -0.56700
O317        O  0.15926446  0.19073057  0.74316581    -0.55800
O318        O  0.33208760  0.43505709  0.75379882    -0.57100
C319        C  0.31934382  0.32922929  0.72636546     0.75600
O320        O  0.41498450  0.43637108  0.74471080    -0.58200
C321        C  0.32163094  0.42429015  0.76912742     0.75500
C322        C  0.42624807  0.32666292  0.76964956     0.77900
Cd323      Cd  0.37373887  0.37607206  0.74792334     1.37500
O324        O  0.35423430  0.33831951  0.72186193    -0.57100
O325        O  0.41867699  0.36121491  0.77323687    -0.55900
C326        C  0.42074592  0.43265119  0.72825954     0.77900
O327        O  0.41293883  0.31509076  0.75499746    -0.58200
O328        O  0.30829868  0.34156922  0.74136153    -0.56700
O329        O  0.33087407  0.39024307  0.77335964    -0.56700
O330        O  0.40760765  0.40214425  0.72152514    -0.55800
N331        N  0.01513136  0.25712455  0.21399613    -0.35900
N332        N  0.98750341  0.31242058  0.18759714    -0.56400
N333        N  0.04277016  0.28006250  0.16189638    -0.35800
N334        N  0.06712234  0.22176471  0.18677812    -0.56400
C335        C  0.98239185  0.27139711  0.22242121     0.27700
C336        C  0.02717374  0.22481168  0.22257468     0.27700
C337        C  0.02092886  0.30389030  0.15161482     0.27700
C338        C  0.06224103  0.25587661  0.15087285     0.27700
C339        C  0.46888381  0.32643081  0.20207720     0.36400
C340        C  0.98676104  0.34056145  0.17528014     0.36400
C341        C  0.08087943  0.20373452  0.20144363     0.36400
C342        C  0.09405482  0.21488749  0.17375385     0.36400
C343        C  0.97387698  0.24790365  0.23674768    -0.21100
C344        C  0.00212264  0.21877310  0.23689998    -0.21100
C345        C  0.02651910  0.29483560  0.13389500    -0.21100
C346        C  0.05280864  0.26485354  0.13341209    -0.21100
C347        C  0.45659749  0.36389400  0.19886740    -0.22200
C348        C  0.46782189  0.37265571  0.18187382    -0.22200
C349        C  0.11673799  0.18551196  0.19757318    -0.22200
C350        C  0.12450226  0.19181143  0.17999129    -0.22200
C351        C  0.46080919  0.30542995  0.21774104    -0.17500
C352        C  0.06065224  0.20128661  0.21797312    -0.17500
C353        C  0.09078368  0.22820169  0.15611832    -0.17500
C354        C  0.99931288  0.33604057  0.15762650    -0.17500
H355        H  0.44970652  0.25121365  0.24620333     0.15400
H356        H  0.00374105  0.19556795  0.24639774     0.15400
H357        H  0.01384762  0.30902392  0.12241646     0.15400
H358        H  0.06396201  0.25187802  0.12140719     0.15400
H359        H  0.44113375  0.38308071  0.20780603     0.13700
H360        H  0.46211952  0.39937602  0.17502325     0.13700
H361        H  0.13581335  0.16956351  0.20649327     0.13700
H362        H  0.15002351  0.18115536  0.17274347     0.13700
H363        H  0.03064007  0.27033388  0.20383830     0.26900
H364        H  0.04822462  0.28362980  0.17534957     0.26900
C365        C  0.21246759  0.23415607  0.05942352     0.02100
C366        C  0.22135457  0.19852372  0.06748486     0.04900
C367        C  0.20459994  0.18914445  0.08404751    -0.11100
C368        C  0.17651919  0.21377693  0.09198279     0.24200
C369        C  0.16416081  0.24718066  0.08283590    -0.11700
C370        C  0.18231694  0.25748916  0.06667359     0.05600
C371        C  0.16032315  0.20577949  0.11003331     0.28000
C372        C  0.12306092  0.18841713  0.11209842    -0.12400
C373        C  0.10379917  0.18956077  0.12868425     0.06100
C374        C  0.11842648  0.21338769  0.14216837    -0.08400
C375        C  0.15700985  0.22813072  0.14057111     0.07000
C376        C  0.17913602  0.22106025  0.12508539    -0.12700
Br377      Br  0.12295023  0.27944045  0.09269957    -0.04800
Br378      Br  0.25999313  0.16428363  0.05686973     0.00800
Br379      Br  0.05506892  0.16260485  0.13248891     0.01300
Br380      Br  0.23512507  0.23073919  0.12485547    -0.03100
Br381      Br  0.16609669  0.30346087  0.05441461     0.01400
Br382      Br  0.22244749  0.14407852  0.09642348    -0.02400
Br383      Br  0.09656720  0.16700758  0.09190070    -0.03300
Br384      Br  0.17818591  0.26121486  0.15857171     0.00700
C385        C  0.27582228  0.29890929  0.05767519     0.02100
C386        C  0.29499503  0.33490123  0.05502824     0.04900
C387        C  0.30691142  0.35654217  0.06994903    -0.11100
C388        C  0.28917163  0.34918162  0.08659454     0.24200
C389        C  0.26433025  0.31759158  0.08788575    -0.11700
C390        C  0.26760973  0.28878808  0.07530573     0.05600
C391        C  0.29499785  0.37313599  0.10273387     0.28000
C392        C  0.30487329  0.35511899  0.11908029    -0.12400
C393        C  0.29843821  0.37434301  0.13519440     0.06100
C394        C  0.28866876  0.41360905  0.13506505    -0.08400
C395        C  0.28618030  0.43312734  0.11863614     0.07000
C396        C  0.28491246  0.41237954  0.10272264    -0.12700
Br397      Br  0.22240128  0.31628177  0.10507390    -0.04800
Br398      Br  0.30146519  0.35896934  0.03215384     0.00800
Br399      Br  0.29734199  0.34505356  0.15695672     0.01300
Br400      Br  0.26157532  0.43656555  0.08209215    -0.03100
Br401      Br  0.29253883  0.24299707  0.08399585     0.01400
Br402      Br  0.34681127  0.39529419  0.06718907    -0.02400
Br403      Br  0.32505146  0.30317635  0.11969220    -0.03300
Br404      Br  0.28014219  0.48806767  0.11804569     0.00700
C405        C  0.29918401  0.26134153  0.94287906     0.02100
C406        C  0.33222776  0.24183799  0.93574386     0.04900
C407        C  0.34641502  0.25159278  0.91880322    -0.11100
C408        C  0.32796077  0.28124291  0.90899272     0.24200
C409        C  0.29621050  0.30199764  0.91656148    -0.11700
C410        C  0.28319131  0.29322583  0.93380767     0.05600
C411        C  0.34374215  0.29130140  0.89119147     0.28000
C412        C  0.37926394  0.31206533  0.88972353    -0.12400
C413        C  0.39779829  0.31578783  0.87311396     0.06100
C414        C  0.38604657  0.29206568  0.85908891    -0.08400
C415        C  0.34944298  0.27303566  0.86016105     0.07000
C416        C  0.32696217  0.27508840  0.87586959    -0.12700
Br417      Br  0.26948497  0.34151606  0.90323905    -0.04800
Br418      Br  0.36046289  0.20447575  0.94980794     0.00800
Br419      Br  0.44421336  0.34679395  0.87027195     0.01300
Br420      Br  0.27483607  0.25319017  0.87675657    -0.03100
Br421      Br  0.24605925  0.32701219  0.94558605     0.01400
Br422      Br  0.39134173  0.22436822  0.90901001    -0.02400
Br423      Br  0.40702732  0.32810271  0.91074849    -0.03300
Br424      Br  0.33236257  0.24046338  0.84109393     0.00700
C425        C  0.24468854  0.19586975  0.94475599     0.02100
C426        C  0.21914806  0.20862101  0.93114915     0.04900
C427        C  0.21633636  0.18774761  0.91533008    -0.11100
C428        C  0.23775277  0.15326504  0.91339817     0.24200
C429        C  0.25975915  0.13839268  0.92773694    -0.11700
C430        C  0.26291023  0.15948595  0.94349709     0.05600
C431        C  0.23652764  0.13264743  0.89631265     0.28000
C432        C  0.20452432  0.10860726  0.89244068    -0.12400
C433        C  0.20153871  0.09170397  0.87562904     0.06100
C434        C  0.23248842  0.09597597  0.86326844    -0.08400
C435        C  0.26488532  0.11959636  0.86724459     0.07000
C436        C  0.26704265  0.13766552  0.88380062    -0.12700
Br437      Br  0.28527318  0.08909000  0.92571188    -0.04800
Br438      Br  0.18529714  0.25249330  0.93473000     0.00800
Br439      Br  0.15695592  0.06006457  0.86993972     0.01300
Br440      Br  0.31404008  0.16521316  0.89018946    -0.03100
Br441      Br  0.29066842  0.13764676  0.96356102     0.01400
Br442      Br  0.18320384  0.20631710  0.89625021    -0.02400
Br443      Br  0.16867029  0.09418273  0.91109210    -0.03300
Br444      Br  0.30765612  0.12491112  0.85038948     0.00700
C445        C  0.51786357  0.14695472  0.86167788     0.02100
C446        C  0.48459058  0.12492377  0.86629674     0.04900
C447        C  0.48174958  0.10850274  0.88327712    -0.11100
C448        C  0.51310865  0.11222909  0.89545726     0.24200
C449        C  0.54630370  0.13427758  0.89090606    -0.11700
C450        C  0.54932727  0.15054972  0.87385385     0.05600
C451        C  0.51071290  0.09332363  0.91309867     0.28000
C452        C  0.48855729  0.11015645  0.92692096    -0.12400
C453        C  0.48232330  0.09000527  0.94283644     0.06100
C454        C  0.49896859  0.05313023  0.94506941    -0.08400
C455        C  0.52584603  0.03897131  0.93229247     0.07000
C456        C  0.53049733  0.05823032  0.91604738    -0.12700
Br457      Br  0.08346316  0.14785824  0.90909819    -0.04800
Br458      Br  0.44096335  0.12076423  0.84987276     0.00800
Br459      Br  0.95143910  0.11335661  0.96152887     0.01300
Br460      Br  0.56390981  0.03650284  0.89783188    -0.03100
Br461      Br  0.09397811  0.18174059  0.86781440     0.01400
Br462      Br  0.43237672  0.08636284  0.89082120    -0.02400
Br463      Br  0.96718522  0.16076357  0.92395999    -0.03300
Br464      Br  0.55989465  0.49602177  0.93785232     0.00700
C465        C  0.36586449  0.95391865  0.85824303     0.02100
C466        C  0.40028757  0.97615857  0.85992642     0.04900
C467        C  0.42275774  0.97423518  0.87563977    -0.11100
C468        C  0.40773992  0.95463445  0.89049102     0.24200
C469        C  0.37505074  0.43039749  0.88828180    -0.11700
C470        C  0.35686875  0.42722094  0.87155593     0.05600
C471        C  0.42150407  0.96484975  0.90862450     0.28000
C472        C  0.45246000  0.94437410  0.91699799    -0.12400
C473        C  0.46364817  0.95349022  0.93446307     0.06100
C474        C  0.44684054  0.98567908  0.94295513    -0.08400
C475        C  0.41448202  0.00487316  0.93498940     0.07000
C476        C  0.40179191  0.99442539  0.91791289    -0.12700
Br477      Br  0.35014052  0.40817753  0.90874816    -0.04800
Br478      Br  0.41406742  0.01246754  0.84171879     0.00800
Br479      Br  0.49963676  0.92002880  0.94716590     0.01300
Br480      Br  0.35699703  0.02037968  0.90724903    -0.03100
Br481      Br  0.31537824  0.39099962  0.86750440     0.01400
Br482      Br  0.47258157  0.00012720  0.87722497    -0.02400
Br483      Br  0.48070535  0.90495097  0.90441054    -0.03300
Br484      Br  0.38518236  0.04296734  0.94809997     0.00700
C485        C  0.13097712  0.53136578  0.14217408     0.02100
C486        C  0.14570185  0.05094364  0.12720901     0.04900
C487        C  0.12257219  0.05401382  0.11174722    -0.11100
C488        C  0.08454935  0.53744489  0.11118142     0.24200
C489        C  0.06786065  0.52271479  0.12698155    -0.11700
C490        C  0.09135297  0.51914510  0.14238290     0.05600
C491        C  0.06530362  0.53096493  0.09361021     0.28000
C492        C  0.03246978  0.55328353  0.08800825    -0.12400
C493        C  0.01533669  0.54706770  0.07121415     0.06100
C494        C  0.02907507  0.51678572  0.06046205    -0.08400
C495        C  0.06399183  0.99691015  0.06531596     0.07000
C496        C  0.08216741  0.00398305  0.08176259    -0.12700
Br497      Br  0.01369284  0.50584643  0.12753127    -0.04800
Br498      Br  0.19906256  0.06999605  0.12754801     0.00800
Br499      Br  0.97588436  0.58242478  0.06222732     0.01300
Br500      Br  0.13101970  0.97707123  0.08765914    -0.03100
Br501      Br  0.07080384  0.49443938  0.16329733     0.01400
Br502      Br  0.14438923  0.07705880  0.09068064    -0.02400
Br503      Br  0.01160764  0.59319720  0.10298209    -0.03300
Br504      Br  0.08919178  0.96281511  0.04863554     0.00700
C505        C  0.97387566  0.45232205  0.05928530     0.02100
C506        C  0.99248175  0.41642048  0.06161933     0.04900
C507        C  0.99119663  0.39831736  0.07830065    -0.11100
C508        C  0.97225218  0.41665544  0.09272105     0.24200
C509        C  0.94946993  0.45010722  0.08965687    -0.11700
C510        C  0.94898412  0.46681163  0.07269699     0.05600
C511        C  0.97690419  0.40093168  0.11096856     0.28000
C512        C  0.44564204  0.38122340  0.11920027    -0.12400
C513        C  0.45133035  0.36351111  0.13577380     0.06100
C514        C  0.98860144  0.36519204  0.14408689    -0.08400
C515        C  0.01902745  0.38706258  0.13654094     0.07000
C516        C  0.01365418  0.40371769  0.11976614    -0.12700
Br517      Br  0.91965900  0.47383621  0.10858505    -0.04800
Br518      Br  0.51891095  0.39119556  0.04198751     0.00800
Br519      Br  0.40958321  0.33392118  0.14634136     0.01300
Br520      Br  0.05835136  0.42586676  0.10803364    -0.03100
Br521      Br  0.91175474  0.00734453  0.06722821     0.01400
Br522      Br  0.51592536  0.34846673  0.08158982    -0.02400
Br523      Br  0.39686439  0.37449034  0.10673511    -0.03300
Br524      Br  0.06928813  0.39108109  0.14862798     0.00700
C525        C  0.34747887  0.28992059  0.63884289     0.02100
C526        C  0.32929613  0.30505161  0.62353150     0.04900
C527        C  0.35058269  0.30685997  0.60753260    -0.11100
C528        C  0.39099329  0.29570996  0.60710674     0.24200
C529        C  0.41025246  0.28488649  0.62300828    -0.11700
C530        C  0.38830022  0.28117298  0.63877562     0.05600
C531        C  0.41126752  0.29003457  0.58977986     0.28000
C532        C  0.40065346  0.25864340  0.57908551    -0.12400
C533        C  0.42047383  0.25195053  0.56298949     0.06100
C534        C  0.45145515  0.27597761  0.55766639    -0.08400
C535        C  0.45894107  0.30959435  0.56722664     0.07000
C536        C  0.44044735  0.31564731  0.58370158    -0.12700
Br537      Br  0.46589130  0.27205091  0.62303549    -0.04800
Br538      Br  0.27421469  0.32050796  0.62434471     0.00800
Br539      Br  0.40262158  0.21220378  0.54739455     0.01300
Br540      Br  0.45745007  0.35774304  0.59808177    -0.03100
Br541      Br  0.41298397  0.26037062  0.65982697     0.01400
Br542      Br  0.32313677  0.32091746  0.58590840    -0.02400
Br543      Br  0.35951119  0.22402758  0.58654922    -0.03300
Br544      Br  0.49243337  0.34861618  0.55723924     0.00700
C545        C  0.05420214  0.24098381  0.44426318     0.02100
C546        C  0.08245814  0.26404815  0.43582340     0.04900
C547        C  0.09886502  0.25282489  0.41953928    -0.11100
C548        C  0.09272090  0.21552450  0.41306958     0.24200
C549        C  0.06852964  0.19045854  0.42280303    -0.11700
C550        C  0.04776029  0.20367988  0.43786028     0.05600
C551        C  0.11372031  0.20258983  0.39670947     0.28000
C552        C  0.09283063  0.19775710  0.38061915    -0.12400
C553        C  0.11377829  0.19607693  0.36444160     0.06100
C554        C  0.15556732  0.19721865  0.36446388    -0.08400
C555        C  0.17612129  0.19462592  0.38072503     0.07000
C556        C  0.15543390  0.19872728  0.39680541    -0.12700
Br557      Br  0.06552748  0.13766606  0.41602500    -0.04800
Br558      Br  0.10391459  0.30767629  0.44780513     0.00800
Br559      Br  0.08515389  0.19629913  0.34230540     0.01300
Br560      Br  0.18457158  0.20255717  0.41880725    -0.03100
Br561      Br  0.01166754  0.17004282  0.44993066     0.01400
Br562      Br  0.12958682  0.28919161  0.40629915    -0.02400
Br563      Br  0.03563602  0.19577959  0.38045140    -0.03300
Br564      Br  0.23324137  0.19003112  0.38067805     0.00700
C565        C  0.96830520  0.38505091  0.35793644     0.02100
C566        C  0.98933642  0.35036669  0.35987184     0.04900
C567        C  0.99197627  0.33310776  0.37666207    -0.11100
C568        C  0.96956359  0.34770563  0.39094882     0.24200
C569        C  0.94403793  0.37936164  0.38826872    -0.11700
C570        C  0.94446840  0.39882616  0.37194453     0.05600
C571        C  0.97586093  0.33226536  0.40907767     0.28000
C572        C  0.45900166  0.29710379  0.41432893    -0.12400
C573        C  0.46639807  0.28208507  0.43133733     0.06100
C574        C  0.99163550  0.30142641  0.44288754    -0.08400
C575        C  0.00507311  0.33827502  0.43850628     0.07000
C576        C  0.99872977  0.35290506  0.42135352    -0.12700
Br577      Br  0.41225437  0.39820627  0.40773627    -0.04800
Br578      Br  0.01947827  0.33024971  0.34015470     0.00800
Br579      Br  0.43765940  0.23817154  0.43948674     0.01300
Br580      Br  0.02254871  0.40062667  0.41447070    -0.03100
Br581      Br  0.91632814  0.44681529  0.36942744     0.01400
Br582      Br  0.03130702  0.29397393  0.38076022    -0.02400
Br583      Br  0.42587226  0.26980472  0.39797967    -0.03300
Br584      Br  0.02890132  0.37025000  0.45630819     0.00700
C585        C  0.19120259  0.50739478  0.44306460     0.02100
C586        C  0.19615246  0.04387343  0.43537476     0.04900
C587        C  0.17708707  0.05303174  0.41925628    -0.11100
C588        C  0.15495156  0.52524383  0.41031354     0.24200
C589        C  0.14927282  0.48924077  0.41832002    -0.11700
C590        C  0.16442826  0.48188929  0.43528450     0.05600
C591        C  0.13378895  0.53458560  0.39354866     0.28000
C592        C  0.09208081  0.53823333  0.39373611    -0.12400
C593        C  0.07100748  0.53929282  0.37769796     0.06100
C594        C  0.09123145  0.53396974  0.36150048    -0.08400
C595        C  0.13303517  0.53376458  0.36120402     0.07000
C596        C  0.15435245  0.53572792  0.37722507    -0.12700
Br597      Br  0.12038239  0.44971369  0.40629092    -0.04800
Br598      Br  0.22748074  0.08213687  0.44707123     0.00800
Br599      Br  0.01377791  0.04377597  0.37786660     0.01300
Br600      Br  0.21148955  0.53828758  0.37668775    -0.03100
Br601      Br  0.14223846  0.44103943  0.44909804     0.01400
Br602      Br  0.18037230  0.10376241  0.40957857    -0.02400
Br603      Br  0.06328309  0.03774873  0.41596579    -0.03300
Br604      Br  0.16094372  0.52592987  0.33914940     0.00700
C605        C  0.25214286  0.44524809  0.44349729     0.02100
C606        C  0.27579809  0.46224771  0.43024729     0.04900
C607        C  0.28398691  0.44267840  0.41430183    -0.11100
C608        C  0.26754008  0.40642765  0.41119089     0.24200
C609        C  0.24488933  0.38896710  0.42465866    -0.11700
C610        C  0.23935608  0.40729553  0.44112095     0.05600
C611        C  0.27349534  0.38703308  0.39371512     0.28000
C612        C  0.25320139  0.40060965  0.37855313    -0.12400
C613        C  0.25747464  0.38190839  0.36216530     0.06100
C614        C  0.27799326  0.34677550  0.36127760    -0.08400
C615        C  0.29931967  0.33355463  0.37621513     0.07000
C616        C  0.29800404  0.35418116  0.39226779    -0.12700
Br617      Br  0.21964453  0.34072303  0.42027366    -0.04800
Br618      Br  0.29955590  0.51116014  0.43444914     0.00800
Br619      Br  0.23090045  0.40145330  0.34131819     0.01300
Br620      Br  0.32702346  0.33561604  0.41265073    -0.03100
Br621      Br  0.21621921  0.37923952  0.46057182     0.01400
Br622      Br  0.31787108  0.46545699  0.39665850    -0.02400
Br623      Br  0.21456958  0.44095419  0.38078410    -0.03300
Br624      Br  0.32742704  0.28541123  0.37497503     0.00700
C625        C  0.22816731  0.04880419  0.55775708     0.02100
C626        C  0.25441139  0.07760686  0.56309759     0.04900
C627        C  0.24806802  0.09729682  0.57913378    -0.11100
C628        C  0.21437541  0.08930102  0.58969665     0.24200
C629        C  0.18640624  0.06262183  0.58350204    -0.11700
C630        C  0.19279323  0.04334690  0.56734880     0.05600
C631        C  0.20764096  0.11075092  0.60660189     0.28000
C632        C  0.21254703  0.09256118  0.62326431    -0.12400
C633        C  0.21267762  0.11435891  0.63899518     0.06100
C634        C  0.20753046  0.15434948  0.63822814    -0.08400
C635        C  0.19846776  0.17186237  0.62179557     0.07000
C636        C  0.19901561  0.15033789  0.60603480    -0.12700
Br637      Br  0.13910975  0.05196078  0.59691458    -0.04800
Br638      Br  0.29629936  0.09337390  0.54741615     0.00800
Br639      Br  0.22332032  0.08987228  0.66146766     0.01300
Br640      Br  0.18949067  0.17556929  0.58350695    -0.03100
Br641      Br  0.15156929  0.51175684  0.55769884     0.01400
Br642      Br  0.28574844  0.13557597  0.58637940    -0.02400
Br643      Br  0.22172972  0.03813046  0.62466391    -0.03300
Br644      Br  0.18795603  0.22613361  0.62081204     0.00700
C645        C  0.52021783  0.11872565  0.64286856     0.02100
C646        C  0.48549460  0.13823273  0.63736437     0.04900
C647        C  0.48456790  0.15735422  0.62096421    -0.11100
C648        C  0.51911499  0.15918564  0.61051354     0.24200
C649        C  0.05441885  0.14172262  0.61652130    -0.11700
C650        C  0.05504075  0.12134855  0.63262698     0.05600
C651        C  0.51828966  0.17863192  0.59296583     0.28000
C652        C  0.50322395  0.15963034  0.57797993    -0.12400
C653        C  0.50153494  0.17847252  0.56146444     0.06100
C654        C  0.51405752  0.21670113  0.55999726    -0.08400
C655        C  0.53328100  0.23388997  0.57448797     0.07000
C656        C  0.53496856  0.21514057  0.59099610    -0.12700
Br657      Br  0.10071810  0.14329990  0.60187224    -0.04800
Br658      Br  0.43846945  0.13670464  0.65192314     0.00800
Br659      Br  0.98352748  0.15111509  0.54072011     0.01300
Br660      Br  0.56163315  0.23876522  0.61074583    -0.03100
Br661      Br  0.10228589  0.09433725  0.64008846     0.01400
Br662      Br  0.43509732  0.17763231  0.61210874    -0.02400
Br663      Br  0.98613055  0.10727610  0.57996874    -0.03300
Br664      Br  0.56094435  0.28117883  0.57129582     0.00700
C665        C  0.39182902  0.98306532  0.64038878     0.02100
C666        C  0.36833391  0.01466870  0.63524533     0.04900
C667        C  0.34696832  0.01353239  0.61935565    -0.11100
C668        C  0.34740754  0.98021004  0.60902648     0.24200
C669        C  0.36846116  0.44774311  0.61489596    -0.11700
C670        C  0.39092260  0.44909825  0.63056494     0.05600
C671        C  0.32723041  0.98008632  0.59160845     0.28000
C672        C  0.28891446  0.96497915  0.58999817    -0.12400
C673        C  0.26896659  0.96725870  0.57365558     0.06100
C674        C  0.28688464  0.98561716  0.55906379    -0.08400
C675        C  0.32686375  0.99682460  0.56022871     0.07000
C676        C  0.34671101  0.99484521  0.57659172    -0.12700
Br677      Br  0.36770562  0.40246066  0.60085627    -0.04800
Br678      Br  0.36626723  0.05983958  0.64982234     0.00800
Br679      Br  0.21882926  0.94229885  0.57092160     0.01300
Br680      Br  0.40038146  0.01303071  0.57862012    -0.03100
Br681      Br  0.42156285  0.40537909  0.63835876     0.01400
Br682      Br  0.31953773  0.05845000  0.61113081    -0.02400
Br683      Br  0.26395367  0.94135993  0.61024523    -0.03300
Br684      Br  0.35512272  0.01361883  0.53939083     0.00700
O685        O  0.43336576  0.90300365  0.25782589    -0.57100
C686        C  0.32240751  0.91854218  0.22598672     0.75600
O687        O  0.43327145  0.82782661  0.24575826    -0.58200
C688        C  0.41848409  0.92160860  0.27058956     0.75500
C689        C  0.32044539  0.81534668  0.27195049     0.77900
Cd690      Cd  0.37016088  0.86748604  0.24964063     1.37500
O691        O  0.33100511  0.92779012  0.24172324    -0.57100
O692        O  0.35783414  0.81633129  0.27265228    -0.55900
C693        C  0.42871929  0.82195792  0.22935630     0.77900
O694        O  0.30511614  0.83668552  0.26022772    -0.58200
O695        O  0.33618821  0.88634584  0.22110506    -0.56700
O696        O  0.38153038  0.91741748  0.27268902    -0.56700
O697        O  0.39637373  0.83440115  0.22280421    -0.55800
N698        N  0.47457582  0.53286853  0.66062138    -0.35900
N699        N  0.52256332  0.56733203  0.68718555    -0.56400
N700        N  0.48523575  0.51745729  0.71398062    -0.35800
N701        N  0.43928892  0.48134094  0.68553523    -0.56400
C702        C  0.49894102  0.55402734  0.65054686     0.27700
C703        C  0.45606207  0.50857250  0.64966886     0.27700
C704        C  0.51666789  0.53105980  0.72328417     0.27700
C705        C  0.47142587  0.48576949  0.72241133     0.27700
C706        C  0.52590389  0.59415612  0.67428950     0.36400
C707        C  0.03569557  0.58347891  0.70226721     0.36400
C708        C  0.41326823  0.47847238  0.67198039     0.36400
C709        C  0.42054280  0.96799909  0.70002057     0.36400
C710        C  0.49686868  0.54231004  0.63300387    -0.21100
C711        C  0.46967287  0.51343753  0.63245300    -0.21100
C712        C  0.52236604  0.50806887  0.73810894    -0.21100
C713        C  0.49397925  0.47963286  0.73755815    -0.21100
C714        C  0.04167206  0.62732962  0.68101850    -0.22200
C715        C  0.04794745  0.62061623  0.69877498    -0.22200
C716        C  0.37801044  0.96294060  0.67772214    -0.22200
C717        C  0.38249749  0.95640000  0.69554105    -0.22200
C718        C  0.51644369  0.58798149  0.65633465    -0.17500
C719        C  0.42187687  0.48841931  0.65436760    -0.17500
C720        C  0.43849131  0.96316708  0.71683319    -0.17500
C721        C  0.03945222  0.56428389  0.71881293    -0.17500
H722        H  0.51140795  0.55492353  0.62163629     0.15400
H723        H  0.45905879  0.49952898  0.62058771     0.15400
H724        H  0.04488367  0.51137075  0.74825915     0.15400
H725        H  0.49071136  0.95688769  0.74718746     0.15400
H726        H  0.04827618  0.65337303  0.67387970     0.13700
H727        H  0.05989358  0.64097226  0.70807748     0.13700
H728        H  0.35191215  0.95695451  0.66989210     0.13700
H729        H  0.36011586  0.94461699  0.70420943     0.13700
H730        H  0.46493596  0.54012349  0.67328903     0.26900
H731        H  0.47196628  0.53082686  0.70314871     0.26900
C732        C  0.23533353  0.99141334  0.49240969     0.04300
S733        S  0.26360886  0.95583135  0.48053403    -0.09700
C734        C  0.24017957  0.96722933  0.45972769    -0.00900
C735        C  0.21286663  0.99587474  0.45943724    -0.00900
S736        S  0.20080048  0.51970855  0.47976563    -0.09700
C737        C  0.23754450  0.52436423  0.54209409    -0.00900
C738        C  0.26355803  0.49477851  0.54282467    -0.00900
S739        S  0.27213172  0.96705517  0.52314407    -0.09700
C740        C  0.23984329  0.49695805  0.51002505     0.04300
S741        S  0.21357592  0.53467079  0.52138320    -0.09700
N742        N  0.99208456  0.99532476  0.28871003    -0.35900
N743        N  0.04696786  0.02481393  0.31574512    -0.56400
N744        N  0.02225669  0.96746542  0.33975218    -0.41800
N745        N  0.96832055  0.93667680  0.31389654    -0.56400
C746        C  0.01734519  0.01637807  0.27859744     0.27700
C747        C  0.97248568  0.97058283  0.27796527     0.27700
C748        C  0.05480932  0.98087262  0.34791860     0.27700
C749        C  0.01498313  0.93289619  0.34683384     0.27700
C750        C  0.04914811  0.55223031  0.30327152     0.36400
C751        C  0.06137423  0.03999386  0.33086541     0.36400
C752        C  0.43942117  0.93246666  0.30178100     0.36400
C753        C  0.95672605  0.91730292  0.32854198     0.36400
C754        C  0.01301085  0.00541546  0.26103628    -0.21100
C755        C  0.98459792  0.97697427  0.26061419    -0.21100
C756        C  0.06888657  0.95437733  0.36009352    -0.21100
C757        C  0.04355960  0.92411135  0.35953945    -0.21100
C758        C  0.06467358  0.58530500  0.31062061    -0.22200
C759        C  0.07230798  0.57751891  0.32819147    -0.22200
C760        C  0.40914613  0.91049302  0.30898663    -0.22200
C761        C  0.42033792  0.90068904  0.32589980    -0.22200
C762        C  0.04339427  0.54556895  0.28497254    -0.17500
C763        C  0.44325985  0.94338549  0.28366635    -0.17500
C764        C  0.98026449  0.91198050  0.34378145    -0.17500
C765        C  0.06865015  0.01839628  0.34625695    -0.17500
H766        H  0.02868743  0.51666627  0.24962692     0.15400
H767        H  0.47463539  0.96220748  0.24886521     0.15400
H768        H  0.09398435  0.95721762  0.36888317     0.15400
H769        H  0.04547192  0.89927763  0.36805404     0.15400
H770        H  0.07098224  0.61190024  0.30387826     0.13700
H771        H  0.08583349  0.59656695  0.33766294     0.13700
H772        H  0.38184770  0.90166684  0.30291871     0.13700
H773        H  0.40389622  0.88305732  0.33505840     0.13700
H774        H  0.98640277  0.99952790  0.30214187     0.26900
H775        H  0.00250760  0.98352108  0.33207178     0.26900
C776        C  0.01007798  0.76405880  0.49286239     0.04300
S777        S  0.48039889  0.79592262  0.47985351    -0.09700
C778        C  0.00430296  0.78258004  0.45964474    -0.00900
C779        C  0.03274085  0.75510326  0.46025941    -0.00900
S780        S  0.04657012  0.73566790  0.48142400    -0.09700
C781        C  0.50586941  0.73881528  0.54343645    -0.00900
C782        C  0.47663256  0.76538333  0.54235194    -0.00900
S783        S  0.46737801  0.78850809  0.52159818    -0.09700
C784        C  0.50521261  0.76099723  0.51059973     0.04300
S785        S  0.03465248  0.72934555  0.52391941    -0.09700
N786        N  0.26973832  0.72920553  0.65850526    -0.35900
N787        N  0.29845181  0.78380162  0.68364725    -0.56400
N788        N  0.24182889  0.75653022  0.71025010    -0.35800
N789        N  0.21521075  0.69954965  0.68398671    -0.56400
C790        C  0.30412125  0.73983793  0.65089602     0.27700
C791        C  0.25892303  0.69631675  0.65070943     0.27700
C792        C  0.26745500  0.77700375  0.72041711     0.27700
C793        C  0.22317015  0.73069045  0.72085066     0.27700
C794        C  0.31481677  0.79768677  0.66860901     0.36400
C795        C  0.30055098  0.81185994  0.69579355     0.36400
C796        C  0.20020035  0.68359225  0.66906895     0.36400
C797        C  0.18798927  0.69485460  0.69694613     0.36400
C798        C  0.31568331  0.71311743  0.63830078    -0.21100
C799        C  0.28704639  0.68552885  0.63818407    -0.21100
C800        C  0.26418964  0.76459864  0.73783870    -0.21100
C801        C  0.23646552  0.73559406  0.73811346    -0.21100
C802        C  0.32698783  0.83487729  0.67100863    -0.22200
C803        C  0.31767441  0.84404303  0.68823607    -0.22200
C804        C  0.16295406  0.66915163  0.67241377    -0.22200
C805        C  0.15522138  0.67611976  0.69007266    -0.22200
C806        C  0.32195435  0.77555327  0.65339965    -0.17500
C807        C  0.22194307  0.67876478  0.65314724    -0.17500
C808        C  0.19453686  0.70308321  0.71520835    -0.17500
C809        C  0.29366284  0.80622208  0.71413219    -0.17500
H810        H  0.34127973  0.71411633  0.62964609     0.15400
H811        H  0.28630931  0.66104206  0.62945608     0.15400
H812        H  0.28061802  0.77466686  0.74918625     0.15400
H813        H  0.22789079  0.71946957  0.74972849     0.15400
H814        H  0.34185303  0.85304409  0.66151002     0.13700
H815        H  0.32400109  0.87094630  0.69463171     0.13700
H816        H  0.14397271  0.65419192  0.66326364     0.13700
H817        H  0.12864545  0.66784408  0.69708656     0.13700
H818        H  0.25157113  0.74641260  0.66639704     0.26900
H819        H  0.23579985  0.76133105  0.69688211     0.26900
N820        N  0.24911903  0.74041189  0.29083581    -0.35900
N821        N  0.27560617  0.79708533  0.31663654    -0.56400
N822        N  0.22447739  0.76376455  0.34273610    -0.35800
N823        N  0.19692798  0.70809642  0.31807830    -0.56400
C824        C  0.26729349  0.76625428  0.28005596     0.27700
C825        C  0.22417663  0.71889514  0.28081090     0.27700
C826        C  0.23216242  0.79784084  0.35021904     0.27700
C827        C  0.19131049  0.75059515  0.35056076     0.27700
C828        C  0.30191910  0.80404729  0.30351704     0.36400
C829        C  0.28831416  0.81605606  0.33119353     0.36400
C830        C  0.19467781  0.68101607  0.30550837     0.36400
C831        C  0.18395924  0.69208525  0.33332623     0.36400
C832        C  0.25441354  0.76034134  0.26281269    -0.21100
C833        C  0.22712555  0.73094437  0.26330638    -0.21100
C834        C  0.20330536  0.80654712  0.36277366    -0.21100
C835        C  0.17720698  0.77688684  0.36273899    -0.21100
C836        C  0.33151352  0.82773432  0.30996476    -0.22200
C837        C  0.32283168  0.83523635  0.32745130    -0.22200
C838        C  0.18062249  0.64731154  0.31292806    -0.22200
C839        C  0.17402459  0.65435574  0.33065164    -0.22200
C840        C  0.29637916  0.79367336  0.28542000    -0.17500
C841        C  0.19977696  0.68826712  0.28717926    -0.17500
C842        C  0.17722807  0.71311857  0.34889006    -0.17500
C843        C  0.26658426  0.81924442  0.34714106    -0.17500
H844        H  0.26347821  0.77567737  0.25103938     0.15400
H845        H  0.21137121  0.71985650  0.25197570     0.15400
H846        H  0.20141054  0.83120652  0.37134981     0.15400
H847        H  0.15132388  0.77421623  0.37104302     0.15400
H848        H  0.35638449  0.83940444  0.30286377     0.13700
H849        H  0.33921000  0.85363354  0.33624325     0.13700
H850        H  0.17485271  0.62067783  0.30619274     0.13700
H851        H  0.16187746  0.63461286  0.34025337     0.13700
H852        H  0.25572918  0.73573733  0.30414332     0.26900
H853        H  0.24397009  0.74785454  0.33488411     0.26900
C854        C  0.48133568  0.50636003  0.99340682     0.04300
S855        S  0.45045566  0.97595638  0.98026654    -0.09700
C856        C  0.46377643  0.49958467  0.95996347    -0.00900
C857        C  0.48848482  0.52965246  0.96082349    -0.00900
S858        S  0.00827491  0.54271041  0.98192629    -0.09700
C859        C  0.00732122  0.00599832  0.04403693    -0.00900
C860        C  0.98238818  0.97608577  0.04342319    -0.00900
S861        S  0.45855572  0.96506796  0.02280492    -0.09700
C862        C  0.98439120  0.00209181  0.01119889     0.04300
S863        S  0.01583017  0.53256675  0.02409257    -0.09700
N864        N  0.28153197  0.51374937  0.84189940    -0.35900
N865        N  0.22684264  0.55248641  0.81742026    -0.56400
N866        N  0.25956118  0.50617445  0.78863810    -0.35800
N867        N  0.31032482  0.46396825  0.81465561    -0.56400
C868        C  0.25904496  0.53435567  0.85324190     0.27700
C869        C  0.30303869  0.48872144  0.85175296     0.27700
C870        C  0.22883368  0.52370342  0.78002364     0.27700
C871        C  0.27249698  0.47631891  0.77858598     0.27700
C872        C  0.22348494  0.57607250  0.83156662     0.36400
C873        C  0.20962377  0.57091731  0.80358473     0.36400
C874        C  0.33808252  0.95616036  0.82722926     0.36400
C875        C  0.32517744  0.95063947  0.79923380     0.36400
C876        C  0.26589757  0.52200296  0.87047980    -0.21100
C877        C  0.29355125  0.49329292  0.86954062    -0.21100
C878        C  0.22262382  0.50495384  0.76409102    -0.21100
C879        C  0.24991043  0.97510956  0.76325792    -0.21100
C880        C  0.20333497  0.60919261  0.82689681    -0.22200
C881        C  0.19449732  0.60598591  0.80919791    -0.22200
C882        C  0.37010687  0.93696047  0.81993604    -0.22200
C883        C  0.36229185  0.93390923  0.80219508    -0.22200
C884        C  0.23733767  0.56764720  0.84880389    -0.17500
C885        C  0.33443955  0.46561456  0.84528631    -0.17500
C886        C  0.30514009  0.95124971  0.78265595    -0.17500
C887        C  0.20682461  0.55650156  0.78601631    -0.17500
H888        H  0.25363338  0.53347495  0.88263731     0.15400
H889        H  0.30588884  0.47864886  0.88089933     0.15400
H890        H  0.20049427  0.51180190  0.75415441     0.15400
H891        H  0.25275851  0.95486430  0.75249831     0.15400
H892        H  0.19585202  0.63315865  0.83535554     0.13700
H893        H  0.17932645  0.62752950  0.80134295     0.13700
H894        H  0.39658386  0.92676327  0.82663342     0.13700
H895        H  0.38218606  0.92118040  0.79256731     0.13700
H896        H  0.28693415  0.52104559  0.82875922     0.26900
H897        H  0.27335999  0.51597784  0.80002809     0.26900
N898        N  0.46860377  0.73103488  0.84151212    -0.35900
N899        N  0.52348085  0.69571629  0.81663325    -0.56400
N900        N  0.49078251  0.74571118  0.78853668    -0.35800
N901        N  0.43967413  0.78412836  0.81501761    -0.56400
C902        C  0.49102331  0.70923422  0.85250534     0.27700
C903        C  0.44687716  0.75481870  0.85184544     0.27700
C904        C  0.52252244  0.72998442  0.77991998     0.27700
C905        C  0.47743287  0.77626072  0.77893682     0.27700
C906        C  0.52558113  0.66970681  0.82998029     0.36400
C907        C  0.53958190  0.67883074  0.80218049     0.36400
C908        C  0.41308591  0.79201719  0.82804400     0.36400
C909        C  0.42541907  0.80087434  0.80012894     0.36400
C910        C  0.48392841  0.71959494  0.86994303    -0.21100
C911        C  0.45593096  0.74789830  0.86954941    -0.21100
C912        C  0.52916299  0.75080777  0.76452839    -0.21100
C913        C  0.50076562  0.77973150  0.76387994    -0.21100
C914        C  0.04347316  0.63630218  0.82416753    -0.22200
C915        C  0.05225387  0.64196773  0.80656399    -0.22200
C916        C  0.38255260  0.81474270  0.82162503    -0.22200
C917        C  0.38994455  0.81992500  0.80395347    -0.22200
C918        C  0.51264583  0.67635040  0.84750815    -0.17500
C919        C  0.41633993  0.77966395  0.84580809    -0.17500
C920        C  0.44420874  0.80040115  0.78323097    -0.17500
C921        C  0.54445132  0.69652542  0.78529466    -0.17500
H922        H  0.49603286  0.70687059  0.88188612     0.15400
H923        H  0.44331343  0.76067339  0.88126987     0.15400
H924        H  0.55208370  0.74578851  0.75472888     0.15400
H925        H  0.49784559  0.80107396  0.75353428     0.15400
H926        H  0.04951477  0.61064470  0.83179359     0.13700
H927        H  0.06595988  0.62095954  0.79795173     0.13700
H928        H  0.35724676  0.82596549  0.82884995     0.13700
H929        H  0.37072378  0.83560050  0.79498850     0.13700
H930        H  0.46351262  0.72556672  0.82823190     0.26900
H931        H  0.47672880  0.73416650  0.79946644     0.26900
O932        O  0.14857908  0.55363401  0.24169777    -0.57100
C933        C  0.17487703  0.66467078  0.27491039     0.75600
O934        O  0.08607607  0.68013920  0.24644052    -0.58200
C935        C  0.17284307  0.56705422  0.23058107     0.75500
C936        C  0.06934995  0.56847160  0.27288413     0.77900
Cd937      Cd  0.12273884  0.61774854  0.25239961     1.37500
O938        O  0.18670829  0.65263663  0.26000012    -0.57100
O939        O  0.05736678  0.58400777  0.25866157    -0.55900
C940        C  0.07663493  0.67209904  0.23068660     0.77900
O941        O  0.10505521  0.57511890  0.27707040    -0.58200
O942        O  0.14012951  0.65472495  0.27924518    -0.56700
O943        O  0.17567433  0.60305233  0.23035548    -0.56700
O944        O  0.08548240  0.63857428  0.22567362    -0.55800
N945        N  0.24553445  0.99430479  0.21078101    -0.35900
N946        N  0.18582576  0.52421487  0.18583276    -0.56400
N947        N  0.21780617  0.97621339  0.15889911    -0.35800
N948        N  0.27669817  0.94535434  0.18277031    -0.56400
C949        C  0.21960238  0.51251082  0.22181376     0.27700
C950        C  0.26641550  0.96786420  0.22042534     0.27700
C951        C  0.18176404  0.98449847  0.15201392     0.27700
C952        C  0.23200019  0.94552675  0.15010598     0.27700
C953        C  0.18071727  0.54946919  0.19912058     0.36400
C954        C  0.16473177  0.53771738  0.17183180     0.36400
C955        C  0.30487889  0.94043581  0.19529214     0.36400
C956        C  0.29357916  0.93646072  0.16700682     0.36400
C957        C  0.22456781  0.49804977  0.23881180    -0.21100
C958        C  0.25350121  0.96970124  0.23790788    -0.21100
C959        C  0.17257352  0.95838449  0.13888751    -0.21100
C960        C  0.20429626  0.93352695  0.13774997    -0.21100
C961        C  0.15592028  0.57914087  0.19339256    -0.22200
C962        C  0.14602857  0.57173045  0.17608822    -0.22200
C963        C  0.34017640  0.92864278  0.18739809    -0.22200
C964        C  0.33315978  0.92678396  0.16939093    -0.22200
C965        C  0.19288960  0.54284823  0.21689908    -0.17500
C966        C  0.29764040  0.94348700  0.21376680    -0.17500
C967        C  0.27164737  0.93247844  0.15116015    -0.17500
C968        C  0.15949988  0.01766336  0.15589889    -0.17500
H969        H  0.20872373  0.50666102  0.25065243     0.15400
H970        H  0.26359250  0.95254713  0.24899408     0.15400
H971        H  0.14636619  0.95803439  0.13060658     0.15400
H972        H  0.20741530  0.91036195  0.12834913     0.15400
H973        H  0.14436783  0.60283944  0.20098570     0.13700
H974        H  0.12617628  0.58859439  0.16784613     0.13700
H975        H  0.36802154  0.92199556  0.19390831     0.13700
H976        H  0.35413932  0.91760745  0.15934730     0.13700
H977        H  0.25093708  0.00196221  0.19765970     0.26900
H978        H  0.23460546  0.99397927  0.16694073     0.26900
C979        C  0.26020351  0.74271624  0.99270264     0.04300
S980        S  0.22827863  0.71121666  0.98072987    -0.09700
C981        C  0.25319770  0.72053371  0.96021995    -0.00900
C982        C  0.28058842  0.74830335  0.95968939    -0.00900
S983        S  0.29428839  0.77095186  0.97999447    -0.09700
C984        C  0.26465718  0.77198468  0.04272081    -0.00900
C985        C  0.23464800  0.74595432  0.04322353    -0.00900
S986        S  0.22178864  0.72108709  0.02321666    -0.09700
C987        C  0.25853298  0.74526166  0.01051806     0.04300
S988        S  0.29382788  0.77218136  0.02270604    -0.09700
O989        O  0.06294053  0.58739410  0.74739478    -0.57100
C990        C  0.17915053  0.57753844  0.77367045     0.75600
O991        O  0.16474442  0.64421038  0.72506547    -0.58200
C992        C  0.06956990  0.58066031  0.73120553     0.75500
C993        C  0.07345238  0.67749960  0.77294494     0.77900
Cd994      Cd  0.12572402  0.62726043  0.75185203     1.37500
O995        O  0.18972389  0.58994826  0.75867455    -0.57100
O996        O  0.10652325  0.66464903  0.77852219    -0.55900
C997        C  0.17241049  0.67873229  0.72842540     0.77900
O998        O  0.06568778  0.67045181  0.75685023    -0.58200
O999        O  0.14413744  0.58642733  0.77818151    -0.56700
O1000       O  0.10259265  0.59214002  0.72544016    -0.56700
O1001       O  0.15936665  0.69064195  0.74320658    -0.55800
O1002       O  0.33198523  0.93501054  0.75378251    -0.57100
C1003       C  0.31941498  0.82911834  0.72642164     0.75600
O1004       O  0.41495693  0.93641241  0.74471172    -0.58200
C1005       C  0.32169511  0.92432902  0.76914799     0.75500
C1006       C  0.42625766  0.82670951  0.76968178     0.77900
Cd1007     Cd  0.37377612  0.87607450  0.74794631     1.37500
O1008       O  0.35430905  0.83819889  0.72192093    -0.57100
O1009       O  0.41866576  0.86125675  0.77326983    -0.55900
C1010       C  0.42084100  0.93260438  0.72827397     0.77900
O1011       O  0.41298546  0.81513227  0.75502447    -0.58200
O1012       O  0.30834255  0.84151400  0.74140383    -0.56700
O1013       O  0.33107148  0.89033524  0.77341661    -0.56700
O1014       O  0.40779240  0.90204189  0.72155886    -0.55800
N1015       N  0.01509598  0.75715011  0.21400279    -0.35900
N1016       N  0.98754066  0.81256939  0.18763951    -0.56400
N1017       N  0.04274330  0.78021739  0.16191299    -0.35800
N1018       N  0.06700573  0.72179092  0.18675807    -0.56400
C1019       C  0.98237083  0.77142837  0.22243708     0.27700
C1020       C  0.02712971  0.72481919  0.22256945     0.27700
C1021       C  0.02095208  0.80412580  0.15164987     0.27700
C1022       C  0.06215547  0.75602767  0.15087054     0.27700
C1023       C  0.46904672  0.82665032  0.20213101     0.36400
C1024       C  0.98683341  0.84075554  0.17534420     0.36400
C1025       C  0.08078012  0.70373169  0.20141371     0.36400
C1026       C  0.09390532  0.71490651  0.17372062     0.36400
C1027       C  0.97385324  0.74791553  0.23675676    -0.21100
C1028       C  0.00208704  0.71877270  0.23689691    -0.21100
C1029       C  0.02652183  0.79512158  0.13392295    -0.21100
C1030       C  0.05274270  0.76508617  0.13341696    -0.21100
C1031       C  0.45681391  0.86413586  0.19893932    -0.22200
C1032       C  0.46803188  0.87291175  0.18194568    -0.22200
C1033       C  0.11661472  0.68548681  0.19752296    -0.22200
C1034       C  0.12434059  0.69179176  0.17993896    -0.22200
C1035       C  0.46091704  0.80561443  0.21777746    -0.17500
C1036       C  0.06059334  0.70128497  0.21795371    -0.17500
C1037       C  0.09063375  0.72827094  0.15609267    -0.17500
C1038       C  0.99937910  0.83628302  0.15768631    -0.17500
H1039       H  0.44970650  0.75132958  0.24620242     0.15400
H1040       H  0.00370205  0.69555374  0.24638750     0.15400
H1041       H  0.01387479  0.80936944  0.12245500     0.15400
H1042       H  0.06386320  0.75212406  0.12140282     0.15400
H1043       H  0.44137296  0.88331834  0.20788794     0.13700
H1044       H  0.46235052  0.89964673  0.17510412     0.13700
H1045       H  0.13570536  0.66952466  0.20643082     0.13700
H1046       H  0.14983969  0.68112498  0.17267918     0.13700
H1047       H  0.03060500  0.77036516  0.20384711     0.26900
H1048       H  0.04820199  0.78371992  0.17536944     0.26900
C1049       C  0.21241252  0.73411687  0.05941523     0.02100
C1050       C  0.22127927  0.69848066  0.06747770     0.04900
C1051       C  0.20448179  0.68909160  0.08403094    -0.11100
C1052       C  0.17638178  0.71372117  0.09195556     0.24200
C1053       C  0.16405270  0.74713306  0.08280701    -0.11700
C1054       C  0.18224685  0.75744769  0.06665416     0.05600
C1055       C  0.16015767  0.70573380  0.11000295     0.28000
C1056       C  0.12285754  0.68843966  0.11205988    -0.12400
C1057       C  0.10355161  0.68966320  0.12863533     0.06100
C1058       C  0.11823246  0.71343937  0.14212811    -0.08400
C1059       C  0.15685666  0.72809090  0.14054122     0.07000
C1060       C  0.17898098  0.72098861  0.12505806    -0.12700
Br1061     Br  0.12283229  0.77940033  0.09265672    -0.04800
Br1062     Br  0.25994095  0.66424478  0.05687638     0.00800
Br1063     Br  0.05470677  0.66287926  0.13241455     0.01300
Br1064     Br  0.23498423  0.73060351  0.12483315    -0.03100
Br1065     Br  0.16605106  0.80342199  0.05439105     0.01400
Br1066     Br  0.22229305  0.64401406  0.09640875    -0.02400
Br1067     Br  0.09640836  0.66696861  0.09186408    -0.03300
Br1068     Br  0.17810548  0.76109494  0.15855700     0.00700
C1069       C  0.27578558  0.79886626  0.05767434     0.02100
C1070       C  0.29498889  0.83484436  0.05503008     0.04900
C1071       C  0.30691011  0.85647475  0.06995265    -0.11100
C1072       C  0.28913673  0.84914016  0.08659278     0.24200
C1073       C  0.26428050  0.81755850  0.08788340    -0.11700
C1074       C  0.26755336  0.78875279  0.07530418     0.05600
C1075       C  0.29495700  0.87310706  0.10272771     0.28000
C1076       C  0.30481843  0.85510138  0.11907707    -0.12400
C1077       C  0.29834445  0.87432734  0.13518769     0.06100
C1078       C  0.28858652  0.91359692  0.13505232    -0.08400
C1079       C  0.28614038  0.93310950  0.11862078     0.07000
C1080       C  0.28489294  0.91235578  0.10270830    -0.12700
Br1081     Br  0.22238212  0.81621927  0.10508628    -0.04800
Br1082     Br  0.30149346  0.85891836  0.03215878     0.00800
Br1083     Br  0.29719784  0.84503908  0.15694860     0.01300
Br1084     Br  0.26165686  0.93655824  0.08205982    -0.03100
Br1085     Br  0.29245335  0.74295606  0.08400261     0.01400
Br1086     Br  0.34688776  0.89515518  0.06720642    -0.02400
Br1087     Br  0.32509926  0.80319664  0.11969113    -0.03300
Br1088     Br  0.28016961  0.98805513  0.11802304     0.00700
C1089       C  0.29917384  0.76133438  0.94288386     0.02100
C1090       C  0.33222446  0.74183968  0.93575119     0.04900
C1091       C  0.34639921  0.75158439  0.91880797    -0.11100
C1092       C  0.32793791  0.78123176  0.90899749     0.24200
C1093       C  0.29618587  0.80198430  0.91656616    -0.11700
C1094       C  0.28316684  0.79320898  0.93381126     0.05600
C1095       C  0.34373768  0.79131064  0.89120347     0.28000
C1096       C  0.37927505  0.81205471  0.88975269    -0.12400
C1097       C  0.39785232  0.81576390  0.87315284     0.06100
C1098       C  0.38609873  0.79206956  0.85911855    -0.08400
C1099       C  0.34946880  0.77308064  0.86017032     0.07000
C1100       C  0.32696667  0.77512860  0.87587253    -0.12700
Br1101     Br  0.26946387  0.84151190  0.90324843    -0.04800
Br1102     Br  0.36049118  0.70451423  0.94982412     0.00800
Br1103     Br  0.44431256  0.84671643  0.87033534     0.01300
Br1104     Br  0.27482403  0.75326115  0.87673836    -0.03100
Br1105     Br  0.24601579  0.82697893  0.94558812     0.01400
Br1106     Br  0.39132324  0.72435228  0.90901470    -0.02400
Br1107     Br  0.40698736  0.82809222  0.91079136    -0.03300
Br1108     Br  0.33237061  0.74057480  0.84108150     0.00700
C1109       C  0.24468561  0.69586739  0.94474393     0.02100
C1110       C  0.21914896  0.70862072  0.93113592     0.04900
C1111       C  0.21636522  0.68776667  0.91530981    -0.11100
C1112       C  0.23780830  0.65330069  0.91337055     0.24200
C1113       C  0.25982131  0.63842820  0.92770765    -0.11700
C1114       C  0.26293752  0.65949945  0.94347597     0.05600
C1115       C  0.23658669  0.63268936  0.89628249     0.28000
C1116       C  0.20458261  0.60865140  0.89240817    -0.12400
C1117       C  0.20158828  0.59176502  0.87559351     0.06100
C1118       C  0.23254969  0.59601729  0.86323781    -0.08400
C1119       C  0.26497164  0.61960108  0.86722287     0.07000
C1120       C  0.26711234  0.63769370  0.88377411    -0.12700
Br1121     Br  0.28539639  0.58915656  0.92566907    -0.04800
Br1122     Br  0.18526343  0.75246532  0.93472436     0.00800
Br1123     Br  0.15699107  0.56014722  0.86989884     0.01300
Br1124     Br  0.31409884  0.66525716  0.89016191    -0.03100
Br1125     Br  0.29068019  0.63764762  0.96354087     0.01400
Br1126     Br  0.18323836  0.70634341  0.89622951    -0.02400
Br1127     Br  0.16875687  0.59418074  0.91106241    -0.03300
Br1128     Br  0.30781817  0.62479569  0.85039655     0.00700
C1129       C  0.51794323  0.64692564  0.86167096     0.02100
C1130       C  0.48469895  0.62486292  0.86629399     0.04900
C1131       C  0.48188158  0.60844831  0.88327614    -0.11100
C1132       C  0.51324952  0.61218818  0.89545081     0.24200
C1133       C  0.54642446  0.63426042  0.89089343    -0.11700
C1134       C  0.54941612  0.65054227  0.87384120     0.05600
C1135       C  0.51086308  0.59329585  0.91309690     0.28000
C1136       C  0.48867767  0.61012233  0.92691186    -0.12400
C1137       C  0.48242238  0.58996925  0.94282524     0.06100
C1138       C  0.49907097  0.55309768  0.94506367    -0.08400
C1139       C  0.52598482  0.53895157  0.93229926     0.07000
C1140       C  0.53065307  0.55820693  0.91605365    -0.12700
Br1141     Br  0.08359006  0.64790663  0.90907526    -0.04800
Br1142     Br  0.44107080  0.62065759  0.84987380     0.00800
Br1143     Br  0.95161713  0.61343720  0.96151134     0.01300
Br1144     Br  0.56406731  0.53646171  0.89784426    -0.03100
Br1145     Br  0.09396328  0.68191649  0.86780729     0.01400
Br1146     Br  0.43251200  0.58632889  0.89083423    -0.02400
Br1147     Br  0.96737341  0.66078245  0.92392667    -0.03300
Br1148     Br  0.55972941  0.99601012  0.93782380     0.00700
C1149       C  0.36589999  0.45391446  0.85821532     0.02100
C1150       C  0.40032041  0.47616004  0.85988945     0.04900
C1151       C  0.42281238  0.47424120  0.87559709    -0.11100
C1152       C  0.40781582  0.45463698  0.89045211     0.24200
C1153       C  0.37497798  0.93039618  0.88831231    -0.11700
C1154       C  0.35681337  0.92722462  0.87158195     0.05600
C1155       C  0.42159450  0.46485826  0.90858246     0.28000
C1156       C  0.45255041  0.44438032  0.91695506    -0.12400
C1157       C  0.46373666  0.45349170  0.93442147     0.06100
C1158       C  0.44691610  0.48566881  0.94291863    -0.08400
C1159       C  0.41456771  0.50487346  0.93494965     0.07000
C1160       C  0.40188984  0.49443941  0.91786974    -0.12700
Br1161     Br  0.35006092  0.90816066  0.90877340    -0.04800
Br1162     Br  0.41406580  0.51246011  0.84167342     0.00800
Br1163     Br  0.49974276  0.42004033  0.94711940     0.01300
Br1164     Br  0.35712379  0.52042641  0.90719824    -0.03100
Br1165     Br  0.31530859  0.89102062  0.86752449     0.01400
Br1166     Br  0.47263329  0.50014518  0.87717090    -0.02400
Br1167     Br  0.48079723  0.40496173  0.90436348    -0.03300
Br1168     Br  0.38526401  0.54296876  0.94805750     0.00700
C1169       C  0.13100940  0.03153880  0.14216349     0.02100
C1170       C  0.14566548  0.55079395  0.12722502     0.04900
C1171       C  0.12253366  0.55388305  0.11176440    -0.11100
C1172       C  0.08458501  0.03757968  0.11117024     0.24200
C1173       C  0.06789201  0.02288027  0.12697581    -0.11700
C1174       C  0.09138071  0.01933554  0.14237867     0.05600
C1175       C  0.06534565  0.03105864  0.09360181     0.28000
C1176       C  0.03250961  0.05336021  0.08798814    -0.12400
C1177       C  0.01538711  0.04710883  0.07119549     0.06100
C1178       C  0.02912209  0.01679662  0.06046154    -0.08400
C1179       C  0.06395771  0.49690414  0.06530128     0.07000
C1180       C  0.08212531  0.50392271  0.08175490    -0.12700
Br1181     Br  0.01373072  0.00599921  0.12753040    -0.04800
Br1182     Br  0.19901920  0.56986715  0.12756944     0.00800
Br1183     Br  0.97594770  0.08245209  0.06218562     0.01300
Br1184     Br  0.13096647  0.47698222  0.08763978    -0.03100
Br1185     Br  0.07082407  0.99467643  0.16330389     0.01400
Br1186     Br  0.14433198  0.57698429  0.09070816    -0.02400
Br1187     Br  0.01162440  0.09329634  0.10294341    -0.03300
Br1188     Br  0.08919582  0.46291162  0.04858772     0.00700
C1189       C  0.97386190  0.95238685  0.05931276     0.02100
C1190       C  0.99244357  0.91648342  0.06167210     0.04900
C1191       C  0.99117477  0.89845175  0.07837030    -0.11100
C1192       C  0.97227131  0.91686416  0.09278194     0.24200
C1193       C  0.94949579  0.95031180  0.08969253    -0.11700
C1194       C  0.94898933  0.96693951  0.07271625     0.05600
C1195       C  0.97693168  0.90119847  0.11104132     0.28000
C1196       C  0.44561920  0.88158337  0.11929894    -0.12400
C1197       C  0.45134991  0.86385162  0.13586621     0.06100
C1198       C  0.98865931  0.86546969  0.14416266    -0.08400
C1199       C  0.01909040  0.88731242  0.13660218     0.07000
C1200       C  0.01370520  0.90394838  0.11982335    -0.12700
Br1201     Br  0.91971529  0.97413870  0.10860366    -0.04800
Br1202     Br  0.51883205  0.89125191  0.04204387     0.00800
Br1203     Br  0.40956639  0.83437595  0.14647747     0.01300
Br1204     Br  0.05841905  0.92599338  0.10806119    -0.03100
Br1205     Br  0.91176184  0.50724871  0.06724408     0.01400
Br1206     Br  0.51578471  0.84859746  0.08166119    -0.02400
Br1207     Br  0.39672749  0.87502223  0.10690183    -0.03300
Br1208     Br  0.06938379  0.89128439  0.14866651     0.00700
C1209       C  0.34745424  0.78999303  0.63887281     0.02100
C1210       C  0.32923376  0.80506598  0.62355788     0.04900
C1211       C  0.35050774  0.80688449  0.60755629    -0.11100
C1212       C  0.39093401  0.79578879  0.60712905     0.24200
C1213       C  0.41022491  0.78503194  0.62303256    -0.11700
C1214       C  0.38829206  0.78132381  0.63880537     0.05600
C1215       C  0.41118141  0.79005944  0.58980048     0.28000
C1216       C  0.40055874  0.75862250  0.57913694    -0.12400
C1217       C  0.42035125  0.75187253  0.56303969     0.06100
C1218       C  0.45129123  0.77590921  0.55767641    -0.08400
C1219       C  0.45877985  0.80956667  0.56720605     0.07000
C1220       C  0.44033403  0.81566416  0.58368812    -0.12700
Br1221     Br  0.46587762  0.77225055  0.62305498    -0.04800
Br1222     Br  0.27412047  0.82041284  0.62436848     0.00800
Br1223     Br  0.40251564  0.71201883  0.54749983     0.01300
Br1224     Br  0.45736231  0.85781632  0.59802729    -0.03100
Br1225     Br  0.41302720  0.76061643  0.65986471     0.01400
Br1226     Br  0.32302950  0.82087555  0.58592968    -0.02400
Br1227     Br  0.35942491  0.72403336  0.58663980    -0.03300
Br1228     Br  0.49221235  0.84857940  0.55716983     0.00700
C1229       C  0.05401349  0.74090130  0.44423596     0.02100
C1230       C  0.08226460  0.76399677  0.43580984     0.04900
C1231       C  0.09867291  0.75282675  0.41951709    -0.11100
C1232       C  0.09255284  0.71553819  0.41302749     0.24200
C1233       C  0.06836674  0.69043952  0.42274519    -0.11700
C1234       C  0.04758164  0.70361552  0.43780726     0.05600
C1235       C  0.11359857  0.70263450  0.39667259     0.28000
C1236       C  0.09275189  0.69778908  0.38057182    -0.12400
C1237       C  0.11374124  0.69608834  0.36440530     0.06100
C1238       C  0.15553055  0.69722800  0.36444738    -0.08400
C1239       C  0.17604324  0.69466484  0.38072061     0.07000
C1240       C  0.15531209  0.69877409  0.39679008    -0.12700
Br1241     Br  0.06540571  0.63765774  0.41594220    -0.04800
Br1242     Br  0.10373166  0.80757682  0.44782502     0.00800
Br1243     Br  0.08517102  0.69629344  0.34225477     0.01300
Br1244     Br  0.18438718  0.70259766  0.41880864    -0.03100
Br1245     Br  0.01148417  0.66993690  0.44984839     0.01400
Br1246     Br  0.12937295  0.78924211  0.40629410    -0.02400
Br1247     Br  0.03555898  0.69580310  0.38037378    -0.03300
Br1248     Br  0.23316596  0.69010400  0.38070549     0.00700
C1249       C  0.96813882  0.88509299  0.35796061     0.02100
C1250       C  0.98917098  0.85040516  0.35987937     0.04900
C1251       C  0.99181506  0.83311228  0.37666171    -0.11100
C1252       C  0.96940409  0.84768006  0.39095545     0.24200
C1253       C  0.94386989  0.87933489  0.38828915    -0.11700
C1254       C  0.94429586  0.89883292  0.37197369     0.05600
C1255       C  0.97570723  0.83221003  0.40907818     0.28000
C1256       C  0.45865869  0.79712150  0.41428319    -0.12400
C1257       C  0.46598869  0.78206439  0.43128935     0.06100
C1258       C  0.99145003  0.80133878  0.44288442    -0.08400
C1259       C  0.00489147  0.83819208  0.43851393     0.07000
C1260       C  0.99855867  0.85284150  0.42136376    -0.12700
Br1261     Br  0.41208907  0.89831433  0.40776305    -0.04800
Br1262     Br  0.01930568  0.83032754  0.34015123     0.00800
Br1263     Br  0.43717568  0.73816708  0.43940329     0.01300
Br1264     Br  0.02236121  0.90058272  0.41449831    -0.03100
Br1265     Br  0.91613447  0.94681417  0.36947577     0.01400
Br1266     Br  0.03114908  0.79397406  0.38074072    -0.02400
Br1267     Br  0.42555346  0.76988098  0.39790347    -0.03300
Br1268     Br  0.02871348  0.87014447  0.45632607     0.00700
C1269       C  0.19101552  0.00739445  0.44309647     0.02100
C1270       C  0.19634956  0.54386173  0.43533355     0.04900
C1271       C  0.17726948  0.55301324  0.41921783    -0.11100
C1272       C  0.15477064  0.02527008  0.41034666     0.24200
C1273       C  0.14907036  0.98926900  0.41835183    -0.11700
C1274       C  0.16423496  0.98189969  0.43531324     0.05600
C1275       C  0.13364406  0.03461410  0.39357299     0.28000
C1276       C  0.09193528  0.03826441  0.39374247    -0.12400
C1277       C  0.07089680  0.03930570  0.37769575     0.06100
C1278       C  0.09115534  0.03395891  0.36150953    -0.08400
C1279       C  0.13295822  0.03377066  0.36122817     0.07000
C1280       C  0.15424246  0.03575060  0.37725739    -0.12700
Br1281     Br  0.12014332  0.94976525  0.40632385    -0.04800
Br1282     Br  0.22771337  0.58211667  0.44701615     0.00800
Br1283     Br  0.01388818  0.54374508  0.37789706     0.01300
Br1284     Br  0.21138022  0.03832716  0.37674127    -0.03100
Br1285     Br  0.14206252  0.94102958  0.44911957     0.01400
Br1286     Br  0.18052825  0.60374802  0.40954058    -0.02400
Br1287     Br  0.06348112  0.53769792  0.41597335    -0.03300
Br1288     Br  0.16090871  0.02596229  0.33918215     0.00700
C1289       C  0.25192896  0.94521117  0.44350031     0.02100
C1290       C  0.27556879  0.96223370  0.43025145     0.04900
C1291       C  0.28377950  0.94267420  0.41430633    -0.11100
C1292       C  0.26735592  0.90641640  0.41118999     0.24200
C1293       C  0.24472359  0.88892864  0.42465676    -0.11700
C1294       C  0.23917031  0.90724893  0.44112042     0.05600
C1295       C  0.27330617  0.88705409  0.39370633     0.28000
C1296       C  0.25300060  0.90065597  0.37855178    -0.12400
C1297       C  0.25727839  0.88199388  0.36215431     0.06100
C1298       C  0.27782305  0.84687735  0.36124780    -0.08400
C1299       C  0.29916158  0.83363492  0.37617770     0.07000
C1300       C  0.29783521  0.85422044  0.39224130    -0.12700
Br1301     Br  0.21954573  0.84065023  0.42027131    -0.04800
Br1302     Br  0.29927009  0.01117312  0.43445168     0.00800
Br1303     Br  0.23067251  0.90156185  0.34131989     0.01300
Br1304     Br  0.32687363  0.83562403  0.41261283    -0.03100
Br1305     Br  0.21603395  0.87917364  0.46056555     0.01400
Br1306     Br  0.31767839  0.96546929  0.39667345    -0.02400
Br1307     Br  0.21435453  0.94098361  0.38080426    -0.03300
Br1308     Br  0.32729212  0.78550778  0.37491141     0.00700
C1309       C  0.22818070  0.54886794  0.55774425     0.02100
C1310       C  0.25443821  0.57766686  0.56307786     0.04900
C1311       C  0.24811084  0.59737221  0.57911219    -0.11100
C1312       C  0.21441871  0.58939949  0.58968032     0.24200
C1313       C  0.18644334  0.56271435  0.58349473    -0.11700
C1314       C  0.19281983  0.54341677  0.56734621     0.05600
C1315       C  0.20770572  0.61085165  0.60658886     0.28000
C1316       C  0.21256177  0.59264174  0.62325016    -0.12400
C1317       C  0.21266929  0.61442025  0.63898697     0.06100
C1318       C  0.20757164  0.65441570  0.63822838    -0.08400
C1319       C  0.19858324  0.67195994  0.62179451     0.07000
C1320       C  0.19913102  0.65045059  0.60602862    -0.12700
Br1321     Br  0.13915389  0.55206293  0.59691486    -0.04800
Br1322     Br  0.29634361  0.59338931  0.54739567     0.00800
Br1323     Br  0.22322461  0.58989824  0.66145949     0.01300
Br1324     Br  0.18965022  0.67571730  0.58350619    -0.03100
Br1325     Br  0.15153200  0.01173533  0.55767605     0.01400
Br1326     Br  0.28582817  0.63562248  0.58635246    -0.02400
Br1327     Br  0.22171965  0.53820657  0.62464396    -0.03300
Br1328     Br  0.18819074  0.72625349  0.62081703     0.00700
C1329       C  0.52023300  0.61875331  0.64287861     0.02100
C1330       C  0.48549945  0.63824282  0.63737550     0.04900
C1331       C  0.48457100  0.65739377  0.62098257    -0.11100
C1332       C  0.51911733  0.65925120  0.61053161     0.24200
C1333       C  0.05448886  0.64171615  0.61655116    -0.11700
C1334       C  0.05509431  0.62133292  0.63265529     0.05600
C1335       C  0.51825934  0.67865516  0.59297209     0.28000
C1336       C  0.50317882  0.65960548  0.57800208    -0.12400
C1337       C  0.50143891  0.67840492  0.56147652     0.06100
C1338       C  0.51391586  0.71664392  0.55998320    -0.08400
C1339       C  0.53316069  0.73388093  0.57445615     0.07000
C1340       C  0.53490181  0.71517318  0.59097445    -0.12700
Br1341     Br  0.10083245  0.64337673  0.60193018    -0.04800
Br1342     Br  0.43845611  0.63663062  0.65192113     0.00800
Br1343     Br  0.98356612  0.65096467  0.54074026     0.01300
Br1344     Br  0.56158070  0.73887293  0.61069988    -0.03100
Br1345     Br  0.10235539  0.59438068  0.64014109     0.01400
Br1346     Br  0.43509987  0.67769180  0.61213907    -0.02400
Br1347     Br  0.98625678  0.60716111  0.57999504    -0.03300
Br1348     Br  0.56078698  0.78117751  0.57122278     0.00700
C1349       C  0.39183373  0.48311487  0.64037714     0.02100
C1350       C  0.36831746  0.51470865  0.63524202     0.04900
C1351       C  0.34697912  0.51358940  0.61934495    -0.11100
C1352       C  0.34744953  0.48028363  0.60900448     0.24200
C1353       C  0.36839989  0.94766665  0.61492771    -0.11700
C1354       C  0.39088440  0.94903373  0.63058946     0.05600
C1355       C  0.32725156  0.48016261  0.59159260     0.28000
C1356       C  0.28893053  0.46506202  0.58999516    -0.12400
C1357       C  0.26896796  0.46732125  0.57365626     0.06100
C1358       C  0.28687380  0.48566211  0.55905697    -0.08400
C1359       C  0.32685646  0.49686206  0.56020962     0.07000
C1360       C  0.34671815  0.49490477  0.57656908    -0.12700
Br1361     Br  0.36758374  0.90235935  0.60091144    -0.04800
Br1362     Br  0.36616284  0.55983324  0.64984753     0.00800
Br1363     Br  0.21884186  0.44233498  0.57093556     0.01300
Br1364     Br  0.40038601  0.51310139  0.57858339    -0.03100
Br1365     Br  0.42153599  0.90531809  0.63838172     0.01400
Br1366     Br  0.31954992  0.55851189  0.61112544    -0.02400
Br1367     Br  0.26398424  0.44147915  0.61025501    -0.03300
Br1368     Br  0.35510470  0.51359850  0.53935841     0.00700
O1369       O  0.93339103  0.40311357  0.25777381    -0.57100
C1370       C  0.82233074  0.41851363  0.22598130     0.75600
O1371       O  0.93322608  0.32764423  0.24574240    -0.58200
C1372       C  0.91846948  0.42178597  0.27050740     0.75500
C1373       C  0.82045636  0.31539130  0.27190595     0.77900
Cd1374     Cd  0.87020266  0.36750858  0.24959935     1.37500
O1375       O  0.83094559  0.42775554  0.24171619    -0.57100
O1376       O  0.85783640  0.31648420  0.27266045    -0.55900
C1377       C  0.92880485  0.32199288  0.22931580     0.77900
O1378       O  0.80515801  0.33659013  0.26012162    -0.58200
O1379       O  0.83613496  0.38633368  0.22108663    -0.56700
O1380       O  0.88151536  0.41757908  0.27259681    -0.56700
O1381       O  0.89655642  0.33462325  0.22274250    -0.55800
N1382       N  0.97444964  0.03299423  0.66067225    -0.35900
N1383       N  0.02266540  0.06737409  0.68716174    -0.56400
N1384       N  0.98531857  0.01760125  0.71402646    -0.35800
N1385       N  0.93915777  0.98159435  0.68564768    -0.56400
C1386       C  0.99886875  0.05402318  0.65056327     0.27700
C1387       C  0.95587376  0.00866958  0.64975657     0.27700
C1388       C  0.01681733  0.03118191  0.72329241     0.27700
C1389       C  0.97151267  0.98592704  0.72247609     0.27700
C1390       C  0.02599506  0.09416925  0.67424827     0.36400
C1391       C  0.53578134  0.08333757  0.70225896     0.36400
C1392       C  0.91309189  0.97871228  0.67211339     0.36400
C1393       C  0.92027187  0.46841434  0.70015661     0.36400
C1394       C  0.99675476  0.04220177  0.63303809    -0.21100
C1395       C  0.96948571  0.01339067  0.63253213    -0.21100
C1396       C  0.02256501  0.00818879  0.73811458    -0.21100
C1397       C  0.99414287  0.97977660  0.73759819    -0.21100
C1398       C  0.54171637  0.12726236  0.68104363    -0.22200
C1399       C  0.54807081  0.12047138  0.69878672    -0.22200
C1400       C  0.87765348  0.46347142  0.67788664    -0.22200
C1401       C  0.88216523  0.45695020  0.69570712    -0.22200
C1402       C  0.01647202  0.08796314  0.65630085    -0.17500
C1403       C  0.92167417  0.98858276  0.65449107    -0.17500
C1404       C  0.93829830  0.46346419  0.71694280    -0.17500
C1405       C  0.53952335  0.06410033  0.71879410    -0.17500
H1406       H  0.01133004  0.05470451  0.62165320     0.15400
H1407       H  0.95884206  0.99941777  0.62068889     0.15400
H1408       H  0.54488182  0.01118888  0.74823626     0.15400
H1409       H  0.99065084  0.45711789  0.74725717     0.15400
H1410       H  0.54832932  0.15332335  0.67392032     0.13700
H1411       H  0.56008052  0.14078123  0.70809422     0.13700
H1412       H  0.85151757  0.45754492  0.67007159     0.13700
H1413       H  0.85977786  0.44523942  0.70439456     0.13700
H1414       H  0.96484145  0.04034287  0.67333503     0.26900
H1415       H  0.97201950  0.03098481  0.70320413     0.26900
C1416       C  0.73534733  0.49115932  0.49246815     0.04300
S1417       S  0.76394800  0.45585587  0.48056470    -0.09700
C1418       C  0.74041357  0.46712239  0.45976514    -0.00900
C1419       C  0.71282186  0.49551498  0.45950078    -0.00900
S1420       S  0.70036336  0.01913481  0.47990875    -0.09700
C1421       C  0.73747509  0.02402207  0.54218763    -0.00900
C1422       C  0.76360378  0.99452459  0.54290385    -0.00900
S1423       S  0.77230033  0.46698294  0.52319532    -0.09700
C1424       C  0.73983802  0.99668204  0.51010211     0.04300
S1425       S  0.71347885  0.03430404  0.52148076    -0.09700
N1426       N  0.49237590  0.49489178  0.28874928    -0.35900
N1427       N  0.54712032  0.52451228  0.31578455    -0.56400
N1428       N  0.52244454  0.46712698  0.33979879    -0.41800
N1429       N  0.46863789  0.43620474  0.31394483    -0.56400
C1430       C  0.51761036  0.51597628  0.27863569     0.27700
C1431       C  0.47281631  0.47012006  0.27800595     0.27700
C1432       C  0.55498702  0.48057529  0.34795583     0.27700
C1433       C  0.51521920  0.43255807  0.34689319     0.27700
C1434       C  0.54928177  0.05191477  0.30331153     0.36400
C1435       C  0.56147363  0.53971608  0.33090960     0.36400
C1436       C  0.93942354  0.43265674  0.30168885     0.36400
C1437       C  0.45702070  0.41686344  0.32859942     0.36400
C1438       C  0.51332463  0.50497976  0.26107769    -0.21100
C1439       C  0.48495201  0.47650240  0.26065605    -0.21100
C1440       C  0.56911614  0.45409972  0.36012814    -0.21100
C1441       C  0.54382058  0.42380934  0.35959065    -0.21100
C1442       C  0.56475575  0.08499754  0.31067308    -0.22200
C1443       C  0.57237294  0.07719525  0.32824374    -0.22200
C1444       C  0.90922602  0.41057797  0.30888669    -0.22200
C1445       C  0.92047936  0.40074391  0.32578574    -0.22200
C1446       C  0.54350844  0.04528234  0.28501280    -0.17500
C1447       C  0.94320294  0.44362083  0.28358112    -0.17500
C1448       C  0.48051920  0.41161271  0.34385794    -0.17500
C1449       C  0.56873855  0.51813066  0.34630703    -0.17500
H1450       H  0.52883469  0.01628728  0.24968133     0.15400
H1451       H  0.97449931  0.46257246  0.24878821     0.15400
H1452       H  0.59422385  0.45697626  0.36890810     0.15400
H1453       H  0.54576744  0.39898247  0.36810865     0.15400
H1454       H  0.57102368  0.11161517  0.30394195     0.13700
H1455       H  0.58584719  0.09625131  0.33772650     0.13700
H1456       H  0.88195056  0.40168881  0.30281814     0.13700
H1457       H  0.90410659  0.38302474  0.33493326     0.13700
H1458       H  0.48665459  0.49910739  0.30217547     0.26900
H1459       H  0.50266892  0.48315907  0.33212276     0.26900
C1460       C  0.51093734  0.26410173  0.49297140     0.04300
S1461       S  0.98037434  0.29642910  0.47980537    -0.09700
C1462       C  0.50504520  0.28240466  0.45974723    -0.00900
C1463       C  0.53362504  0.25507157  0.46038595    -0.00900
S1464       S  0.54762341  0.23586371  0.48157333    -0.09700
C1465       C  0.00562575  0.23894603  0.54337379    -0.00900
C1466       C  0.97645054  0.26558579  0.54230780    -0.00900
S1467       S  0.96720054  0.28877736  0.52156374    -0.09700
C1468       C  0.00497671  0.26124580  0.51054011     0.04300
S1469       S  0.53541181  0.22949696  0.52406317    -0.09700
N1470       N  0.76999280  0.22873392  0.65857676    -0.35900
N1471       N  0.79865012  0.28345873  0.68369589    -0.56400
N1472       N  0.74196931  0.25629946  0.71028084    -0.35800
N1473       N  0.71546228  0.19915785  0.68405114    -0.56400
C1474       C  0.80440219  0.23931487  0.65097889     0.27700
C1475       C  0.75909962  0.19589088  0.65076313     0.27700
C1476       C  0.76746224  0.27694080  0.72044067     0.27700
C1477       C  0.72332837  0.23049122  0.72090328     0.27700
C1478       C  0.81500133  0.29726805  0.66864027     0.36400
C1479       C  0.80057940  0.31164789  0.69578508     0.36400
C1480       C  0.70038366  0.18326196  0.66913259     0.36400
C1481       C  0.68824056  0.19451824  0.69701367     0.36400
C1482       C  0.81591561  0.21258996  0.63837487    -0.21100
C1483       C  0.78720304  0.18506673  0.63823638    -0.21100
C1484       C  0.76411264  0.26468859  0.73788190    -0.21100
C1485       C  0.73649016  0.23559270  0.73817459    -0.21100
C1486       C  0.82700077  0.33453422  0.67097366    -0.22200
C1487       C  0.81759281  0.34382640  0.68817697    -0.22200
C1488       C  0.66310577  0.16890263  0.67248197    -0.22200
C1489       C  0.65541811  0.17586393  0.69014398    -0.22200
C1490       C  0.82222966  0.27503927  0.65346750    -0.17500
C1491       C  0.72207784  0.17842210  0.65320039    -0.17500
C1492       C  0.69478906  0.20278085  0.71527196    -0.17500
C1493       C  0.79363162  0.30616434  0.71412788    -0.17500
H1494       H  0.84150804  0.21356603  0.62971682     0.15400
H1495       H  0.78640225  0.16060687  0.62949362     0.15400
H1496       H  0.78041760  0.27491882  0.74923319     0.15400
H1497       H  0.72788482  0.21955770  0.74981133     0.15400
H1498       H  0.84179742  0.35268057  0.66144491     0.13700
H1499       H  0.82377739  0.37081363  0.69452569     0.13700
H1500       H  0.64406647  0.15400967  0.66333059     0.13700
H1501       H  0.62881728  0.16766624  0.69715893     0.13700
H1502       H  0.75184623  0.24597076  0.66646302     0.26900
H1503       H  0.73600863  0.26096955  0.69689777     0.26900
N1504       N  0.74908336  0.24051400  0.29080571    -0.35900
N1505       N  0.77558060  0.29722356  0.31659439    -0.56400
N1506       N  0.72453721  0.26388343  0.34269988    -0.35800
N1507       N  0.69699591  0.20816345  0.31806608    -0.56400
C1508       C  0.76720843  0.26638671  0.28002477     0.27700
C1509       C  0.72408144  0.21903022  0.28079318     0.27700
C1510       C  0.73216530  0.29797879  0.35017474     0.27700
C1511       C  0.69140424  0.25066783  0.35053182     0.27700
C1512       C  0.80191103  0.30413988  0.30347697     0.36400
C1513       C  0.78829503  0.31620308  0.33114877     0.36400
C1514       C  0.69475720  0.18107736  0.30549959     0.36400
C1515       C  0.68415458  0.19211941  0.33332730     0.36400
C1516       C  0.75421783  0.26054106  0.26279235    -0.21100
C1517       C  0.72692088  0.23114994  0.26329562    -0.21100
C1518       C  0.70329748  0.30665496  0.36272866    -0.21100
C1519       C  0.67725076  0.27695115  0.36270112    -0.21100
C1520       C  0.83152335  0.32781019  0.30992591    -0.22200
C1521       C  0.82283191  0.33534827  0.32740781    -0.22200
C1522       C  0.68083602  0.14733471  0.31293406    -0.22200
C1523       C  0.67431212  0.15436269  0.33066494    -0.22200
C1524       C  0.79635531  0.29375969  0.28537981    -0.17500
C1525       C  0.69974830  0.18835519  0.28716767    -0.17500
C1526       C  0.67744949  0.21314515  0.34889388    -0.17500
C1527       C  0.76656454  0.31940770  0.34709536    -0.17500
H1528       H  0.76321253  0.27591503  0.25101923     0.15400
H1529       H  0.71109400  0.22010966  0.25197517     0.15400
H1530       H  0.70136699  0.33131688  0.37130180     0.15400
H1531       H  0.65137369  0.27423842  0.37100506     0.15400
H1532       H  0.85641599  0.33945564  0.30283319     0.13700
H1533       H  0.83922581  0.35373882  0.33619764     0.13700
H1534       H  0.67511209  0.12068304  0.30620600     0.13700
H1535       H  0.66226994  0.13458937  0.34028008     0.13700
H1536       H  0.75578100  0.23579063  0.30410163     0.26900
H1537       H  0.74405959  0.24798377  0.33485741     0.26900
C1538       C  0.98101479  0.00649716  0.99345934     0.04300
S1539       S  0.94990500  0.47619247  0.98032346    -0.09700
C1540       C  0.96336784  0.99957323  0.96003252    -0.00900
C1541       C  0.98817501  0.02956726  0.96084708    -0.00900
S1542       S  0.50848811  0.04274040  0.98193320    -0.09700
C1543       C  0.50740234  0.50573025  0.04400451    -0.00900
C1544       C  0.48259105  0.47572698  0.04334710    -0.00900
S1545       S  0.95817632  0.46534123  0.02286979    -0.09700
C1546       C  0.48463211  0.50189280  0.01114634     0.04300
S1547       S  0.51602919  0.03243356  0.02409791    -0.09700
N1548       N  0.78147142  0.01377470  0.84195443    -0.35900
N1549       N  0.72682601  0.05250094  0.81747442    -0.56400
N1550       N  0.75950988  0.00613026  0.78869828    -0.35800
N1551       N  0.81027765  0.96398835  0.81470961    -0.56400
C1552       C  0.75898445  0.03440036  0.85328969     0.27700
C1553       C  0.80290968  0.98869397  0.85180805     0.27700
C1554       C  0.72861712  0.02348539  0.78013495     0.27700
C1555       C  0.77233839  0.97617225  0.77868863     0.27700
C1556       C  0.72359079  0.07617544  0.83159389     0.36400
C1557       C  0.70971104  0.07094610  0.80361877     0.36400
C1558       C  0.83786773  0.45605300  0.82728913     0.36400
C1559       C  0.82495246  0.45048702  0.79929809     0.36400
C1560       C  0.76576676  0.02200569  0.87052689    -0.21100
C1561       C  0.79336811  0.99324376  0.86959156    -0.21100
C1562       C  0.72215645  0.00449542  0.76428404    -0.21100
C1563       C  0.74961670  0.47485531  0.76334550    -0.21100
C1564       C  0.70364879  0.10938530  0.82688306    -0.22200
C1565       C  0.69480815  0.10613549  0.80918533    -0.22200
C1566       C  0.86985162  0.43677245  0.82000603    -0.22200
C1567       C  0.86203364  0.43369696  0.80226746    -0.22200
C1568       C  0.73732749  0.06772296  0.84884655    -0.17500
C1569       C  0.83431800  0.96557421  0.84535159    -0.17500
C1570       C  0.80493091  0.45111384  0.78271726    -0.17500
C1571       C  0.70673124  0.05638163  0.78608585    -0.17500
H1572       H  0.75348832  0.03347290  0.88268215     0.15400
H1573       H  0.80564000  0.97854924  0.88095038     0.15400
H1574       H  0.69984066  0.01116536  0.75440575     0.15400
H1575       H  0.75244209  0.45456996  0.75260093     0.15400
H1576       H  0.69630039  0.13343381  0.83531411     0.13700
H1577       H  0.67976490  0.12771430  0.80130260     0.13700
H1578       H  0.89631032  0.42654352  0.82670761     0.13700
H1579       H  0.88190678  0.42091180  0.79264746     0.13700
H1580       H  0.78691947  0.02108250  0.82880990     0.26900
H1581       H  0.77351771  0.01615705  0.80000888     0.26900
N1582       N  0.96840267  0.23089833  0.84153059    -0.35900
N1583       N  0.02330913  0.19562004  0.81665162    -0.56400
N1584       N  0.99066988  0.24567478  0.78855994    -0.35800
N1585       N  0.93954929  0.28408499  0.81504087    -0.56400
C1586       C  0.99075580  0.20903468  0.85252524     0.27700
C1587       C  0.94667604  0.25468168  0.85186590     0.27700
C1588       C  0.02242757  0.22996465  0.77994727     0.27700
C1589       C  0.97730150  0.27621665  0.77895626     0.27700
C1590       C  0.02553700  0.16963785  0.83000711     0.36400
C1591       C  0.03964949  0.17885277  0.80222152     0.36400
C1592       C  0.91298283  0.29200509  0.82807341     0.36400
C1593       C  0.92532127  0.30088098  0.80015760     0.36400
C1594       C  0.98360698  0.21934660  0.86996525    -0.21100
C1595       C  0.95566505  0.24769909  0.86957068    -0.21100
C1596       C  0.02905116  0.25078484  0.76455307    -0.21100
C1597       C  0.00063661  0.27969189  0.76390038    -0.21100
C1598       C  0.54360561  0.13642980  0.82419261    -0.22200
C1599       C  0.55242959  0.14207052  0.80659236    -0.22200
C1600       C  0.88249771  0.31480350  0.82166526    -0.22200
C1601       C  0.88989074  0.31999835  0.80399445    -0.22200
C1602       C  0.01246169  0.17619914  0.84752341    -0.17500
C1603       C  0.91619519  0.27959782  0.84583215    -0.17500
C1604       C  0.94408441  0.30037554  0.78325131    -0.17500
C1605       C  0.04443788  0.19655331  0.78532983    -0.17500
H1606       H  0.99566827  0.20658621  0.88190884     0.15400
H1607       H  0.94304686  0.26048012  0.88128926     0.15400
H1608       H  0.05198634  0.24578103  0.75475833     0.15400
H1609       H  0.99771740  0.30103714  0.75355596     0.15400
H1610       H  0.54956459  0.11076051  0.83182258     0.13700
H1611       H  0.56607911  0.12101642  0.79798718     0.13700
H1612       H  0.85721526  0.32605840  0.82889600     0.13700
H1613       H  0.87068947  0.33571881  0.79503834     0.13700
H1614       H  0.96337181  0.22549850  0.82823877     0.26900
H1615       H  0.97662883  0.23413574  0.79949587     0.26900
O1616       O  0.64889123  0.05361130  0.24184158    -0.57100
C1617       C  0.67483866  0.16471936  0.27491494     0.75600
O1618       O  0.58588164  0.17998229  0.24650254    -0.58200
C1619       C  0.67282110  0.06708005  0.23059302     0.75500
C1620       C  0.56940629  0.06825019  0.27292085     0.77900
Cd1621     Cd  0.62270550  0.11767347  0.25244708     1.37500
O1622       O  0.68656380  0.15285586  0.25995921    -0.57100
O1623       O  0.55739173  0.08375974  0.25869638    -0.55900
C1624       C  0.57647217  0.17191637  0.23074674     0.77900
O1625       O  0.60508984  0.07499143  0.27710968    -0.58200
O1626       O  0.64019469  0.15456301  0.27930826    -0.56700
O1627       O  0.67536258  0.10309751  0.23026978    -0.56700
O1628       O  0.58536683  0.13839862  0.22574012    -0.55800
N1629       N  0.74544432  0.49428428  0.21078896    -0.35900
N1630       N  0.68571214  0.02415261  0.18585253    -0.56400
N1631       N  0.71755809  0.47602287  0.15894756    -0.35800
N1632       N  0.77656580  0.44531280  0.18278508    -0.56400
C1633       C  0.71952409  0.01249584  0.22181838     0.27700
C1634       C  0.76633821  0.46785720  0.22043623     0.27700
C1635       C  0.68147091  0.48420416  0.15208676     0.27700
C1636       C  0.73182361  0.44538792  0.15014189     0.27700
C1637       C  0.68064874  0.04945253  0.19912533     0.36400
C1638       C  0.66461486  0.03763261  0.17184906     0.36400
C1639       C  0.80476321  0.44041864  0.19529941     0.36400
C1640       C  0.79345339  0.43648143  0.16701690     0.36400
C1641       C  0.72450248  0.99804183  0.23881743    -0.21100
C1642       C  0.75347800  0.46974994  0.23792504    -0.21100
C1643       C  0.67232208  0.45806864  0.13896322    -0.21100
C1644       C  0.70412398  0.43330999  0.13780089    -0.21100
C1645       C  0.65587074  0.07912803  0.19338168    -0.22200
C1646       C  0.64595404  0.07167574  0.17608586    -0.22200
C1647       C  0.84007551  0.42869532  0.18739800    -0.22200
C1648       C  0.83305343  0.42686823  0.16939114    -0.22200
C1649       C  0.69283775  0.04285760  0.21690542    -0.17500
C1650       C  0.79753899  0.44345771  0.21377291    -0.17500
C1651       C  0.77151164  0.43246231  0.15117711    -0.17500
C1652       C  0.65916519  0.51734264  0.15596606    -0.17500
H1653       H  0.70869477  0.00667132  0.25066418     0.15400
H1654       H  0.76359780  0.45262683  0.24901630     0.15400
H1655       H  0.64609975  0.45765679  0.13069285     0.15400
H1656       H  0.70729409  0.41016476  0.12839271     0.15400
H1657       H  0.64433307  0.10286096  0.20095258     0.13700
H1658       H  0.62611156  0.08853539  0.16783699     0.13700
H1659       H  0.86793536  0.42208259  0.19390287     0.13700
H1660       H  0.85404134  0.41774176  0.15934130     0.13700
H1661       H  0.75081131  0.50191001  0.19766063     0.26900
H1662       H  0.73433757  0.49384222  0.16697170     0.26900
C1663       C  0.76044559  0.24244816  0.99281468     0.04300
S1664       S  0.72841713  0.21107830  0.98082332    -0.09700
C1665       C  0.75319412  0.22054010  0.96029242    -0.00900
C1666       C  0.78064111  0.24826164  0.95977455    -0.00900
S1667       S  0.79455619  0.27067805  0.98011233    -0.09700
C1668       C  0.76477103  0.27168023  0.04283687    -0.00900
C1669       C  0.73475652  0.24565857  0.04332556    -0.00900
S1670       S  0.72198329  0.22077081  0.02331286    -0.09700
C1671       C  0.75877923  0.24493443  0.01063490     0.04300
S1672       S  0.79406918  0.27180114  0.02285412    -0.09700
O1673       O  0.56292357  0.08725408  0.74738922    -0.57100
C1674       C  0.67905193  0.07736989  0.77373222     0.75600
O1675       O  0.66486215  0.14396310  0.72510930    -0.58200
C1676       C  0.56960799  0.08047182  0.73120774     0.75500
C1677       C  0.57367227  0.17751711  0.77295222     0.77900
Cd1678     Cd  0.62576637  0.12707401  0.75187197     1.37500
O1679       O  0.68951106  0.08937965  0.75865015    -0.57100
O1680       O  0.60664329  0.16445464  0.77854137    -0.55900
C1681       C  0.67264898  0.17844791  0.72848967     0.77900
O1682       O  0.56593161  0.17058843  0.75684223    -0.58200
O1683       O  0.64417482  0.08660897  0.77830540    -0.56700
O1684       O  0.60265760  0.09191992  0.72546230    -0.56700
O1685       O  0.65967676  0.19034481  0.74328359    -0.55800
O1686       O  0.83192746  0.43505405  0.75385851    -0.57100
C1687       C  0.81932574  0.32917892  0.72639772     0.75600
O1688       O  0.91498466  0.43643044  0.74480938    -0.58200
C1689       C  0.82152763  0.42426694  0.76919245     0.75500
C1690       C  0.92613478  0.32669674  0.76969888     0.77900
Cd1691     Cd  0.87366277  0.37612787  0.74796185     1.37500
O1692       O  0.85423126  0.33825396  0.72190848    -0.57100
O1693       O  0.91855645  0.36124696  0.77328597    -0.55900
C1694       C  0.92069887  0.43280648  0.72835060     0.77900
O1695       O  0.91285967  0.31513685  0.75503809    -0.58200
O1696       O  0.80821043  0.34163620  0.74136290    -0.56700
O1697       O  0.83083692  0.39023384  0.77341853    -0.56700
O1698       O  0.90752168  0.40234339  0.72158730    -0.55800
N1699       N  0.51487747  0.25687008  0.21399620    -0.35900
N1700       N  0.48733462  0.31223447  0.18760089    -0.56400
N1701       N  0.54259564  0.27984886  0.16191324    -0.35800
N1702       N  0.56684665  0.22147963  0.18679166    -0.56400
C1703       C  0.48216739  0.27117844  0.22242819     0.27700
C1704       C  0.52694798  0.22459545  0.22259766     0.27700
C1705       C  0.52081007  0.30372508  0.15163203     0.27700
C1706       C  0.56200802  0.25562247  0.15088833     0.27700
C1707       C  0.96914035  0.32666142  0.20208562     0.36400
C1708       C  0.48662039  0.34039365  0.17529125     0.36400
C1709       C  0.58063470  0.20349930  0.20146518     0.36400
C1710       C  0.59378233  0.21460359  0.17376867     0.36400
C1711       C  0.47369509  0.24774442  0.23678142    -0.21100
C1712       C  0.50194022  0.21861392  0.23694323    -0.21100
C1713       C  0.52637475  0.29465872  0.13391214    -0.21100
C1714       C  0.55259113  0.26461920  0.13342807    -0.21100
C1715       C  0.95690155  0.36413960  0.19887910    -0.22200
C1716       C  0.96803915  0.37285697  0.18186988    -0.22200
C1717       C  0.61651619  0.18531616  0.19760094    -0.22200
C1718       C  0.62425653  0.19157068  0.18001418    -0.22200
C1719       C  0.96103486  0.30565748  0.21774357    -0.17500
C1720       C  0.56042553  0.20106879  0.21800008    -0.17500
C1721       C  0.59051116  0.22790899  0.15613159    -0.17500
C1722       C  0.49924798  0.33590776  0.15764425    -0.17500
H1723       H  0.94985298  0.25132457  0.24615486     0.15400
H1724       H  0.50359324  0.19545394  0.24646370     0.15400
H1725       H  0.51373000  0.30887057  0.12243408     0.15400
H1726       H  0.56371329  0.25162295  0.12142223     0.15400
H1727       H  0.94151319  0.38335994  0.20782780     0.13700
H1728       H  0.96234158  0.39957481  0.17501641     0.13700
H1729       H  0.63562854  0.16943424  0.20653015     0.13700
H1730       H  0.64979218  0.18093166  0.17277143     0.13700
H1731       H  0.53035551  0.27003878  0.20381925     0.26900
H1732       H  0.54806341  0.28340469  0.17536577     0.26900
C1733       C  0.71248855  0.23381582  0.05950912     0.02100
C1734       C  0.72136503  0.19818637  0.06757643     0.04900
C1735       C  0.70453494  0.18878275  0.08412106    -0.11100
C1736       C  0.67640099  0.21339239  0.09203461     0.24200
C1737       C  0.66407974  0.24680553  0.08288575    -0.11700
C1738       C  0.68229012  0.25712621  0.06673673     0.05600
C1739       C  0.66014839  0.20539466  0.11007576     0.28000
C1740       C  0.62285705  0.18807456  0.11211987    -0.12400
C1741       C  0.60352027  0.18928690  0.12868842     0.06100
C1742       C  0.61815301  0.21308475  0.14218349    -0.08400
C1743       C  0.65675965  0.22778258  0.14060678     0.07000
C1744       C  0.67892165  0.22068800  0.12513439    -0.12700
Br1745     Br  0.62285379  0.27906901  0.09273465    -0.04800
Br1746     Br  0.76009668  0.16398855  0.05699917     0.00800
Br1747     Br  0.55466689  0.16250102  0.13244621     0.01300
Br1748     Br  0.73490067  0.23041676  0.12492163    -0.03100
Br1749     Br  0.66605385  0.30306775  0.05445954     0.01400
Br1750     Br  0.72237152  0.14372941  0.09650896    -0.02400
Br1751     Br  0.59643889  0.16662139  0.09191210    -0.03300
Br1752     Br  0.67791989  0.26086660  0.15861239     0.00700
C1753       C  0.77579288  0.29863613  0.05777507     0.02100
C1754       C  0.79486660  0.33466204  0.05509565     0.04900
C1755       C  0.80674907  0.35638436  0.06999363    -0.11100
C1756       C  0.78903096  0.34906192  0.08664584     0.24200
C1757       C  0.76424252  0.31743426  0.08796985    -0.11700
C1758       C  0.76755747  0.28858316  0.07541348     0.05600
C1759       C  0.79485829  0.37307629  0.10276363     0.28000
C1760       C  0.80479018  0.35511685  0.11911543    -0.12400
C1761       C  0.79830020  0.37435642  0.13521911     0.06100
C1762       C  0.78846813  0.41360700  0.13507138    -0.08400
C1763       C  0.78594397  0.43309161  0.11863553     0.07000
C1764       C  0.78470798  0.41230654  0.10273227    -0.12700
Br1765     Br  0.72239101  0.31607050  0.10519715    -0.04800
Br1766     Br  0.80119350  0.35867062  0.03220068     0.00800
Br1767     Br  0.79717159  0.34509002  0.15698801     0.01300
Br1768     Br  0.76133753  0.43641602  0.08209048    -0.03100
Br1769     Br  0.79236309  0.24278204  0.08416072     0.01400
Br1770     Br  0.84658899  0.39518079  0.06719457    -0.02400
Br1771     Br  0.82508835  0.30321780  0.11974930    -0.03300
Br1772     Br  0.77980752  0.48802275  0.11802260     0.00700
C1773       C  0.79919686  0.26133168  0.94296492     0.02100
C1774       C  0.83221897  0.24183732  0.93580848     0.04900
C1775       C  0.84631160  0.25155059  0.91884699    -0.11100
C1776       C  0.82781885  0.28119044  0.90904217     0.24200
C1777       C  0.79610065  0.30195567  0.91663688    -0.11700
C1778       C  0.78315870  0.29320033  0.93389901     0.05600
C1779       C  0.84359818  0.29127648  0.89123951     0.28000
C1780       C  0.87915416  0.31199533  0.88978297    -0.12400
C1781       C  0.89772493  0.31570419  0.87318038     0.06100
C1782       C  0.88595686  0.29202009  0.85914528    -0.08400
C1783       C  0.84932065  0.27304301  0.86020205     0.07000
C1784       C  0.82682002  0.27509763  0.87590760    -0.12700
Br1785     Br  0.76930695  0.34145945  0.90333359    -0.04800
Br1786     Br  0.86056742  0.20455954  0.94987511     0.00800
Br1787     Br  0.94419310  0.34664530  0.87035901     0.01300
Br1788     Br  0.77466879  0.25324685  0.87677513    -0.03100
Br1789     Br  0.74610364  0.32699966  0.94571674     0.01400
Br1790     Br  0.89116437  0.22427120  0.90901985    -0.02400
Br1791     Br  0.90692243  0.32796347  0.91081779    -0.03300
Br1792     Br  0.83221261  0.24055727  0.84110818     0.00700
C1793       C  0.74464025  0.19590547  0.94480700     0.02100
C1794       C  0.71903247  0.20864614  0.93122088     0.04900
C1795       C  0.71613917  0.18775305  0.91540716    -0.11100
C1796       C  0.73761135  0.15330817  0.91344347     0.24200
C1797       C  0.75974647  0.13847998  0.92775278    -0.11700
C1798       C  0.76290502  0.15954630  0.94352039     0.05600
C1799       C  0.73639632  0.13272762  0.89634319     0.28000
C1800       C  0.70444354  0.10862864  0.89246110    -0.12400
C1801       C  0.70150922  0.09172590  0.87564539     0.06100
C1802       C  0.73245431  0.09607212  0.86328684    -0.08400
C1803       C  0.76479211  0.11975635  0.86727105     0.07000
C1804       C  0.76690806  0.13780373  0.88383379    -0.12700
Br1805     Br  0.78549380  0.08929927  0.92566871    -0.04800
Br1806     Br  0.68524046  0.25255669  0.93481315     0.00800
Br1807     Br  0.65703508  0.05994379  0.86995387     0.01300
Br1808     Br  0.81387833  0.16536610  0.89024065    -0.03100
Br1809     Br  0.79073856  0.13769539  0.96356114     0.01400
Br1810     Br  0.68284729  0.20625917  0.89637080    -0.02400
Br1811     Br  0.66861767  0.09409764  0.91110541    -0.03300
Br1812     Br  0.80755691  0.12517464  0.85042090     0.00700
C1813       C  0.01782584  0.14677238  0.86168396     0.02100
C1814       C  0.98463838  0.12462260  0.86629922     0.04900
C1815       C  0.98185702  0.10817846  0.88327659    -0.11100
C1816       C  0.01320651  0.11197607  0.89545691     0.24200
C1817       C  0.04633189  0.13412666  0.89090636    -0.11700
C1818       C  0.04928403  0.15044686  0.87385896     0.05600
C1819       C  0.01079273  0.09312619  0.91311388     0.28000
C1820       C  0.98846623  0.10993151  0.92688917    -0.12400
C1821       C  0.98207666  0.08977110  0.94278807     0.06100
C1822       C  0.99877066  0.05293231  0.94506544    -0.08400
C1823       C  0.02579934  0.03879598  0.93234600     0.07000
C1824       C  0.03058916  0.05805282  0.91610610    -0.12700
Br1825     Br  0.58347466  0.14790525  0.90909965    -0.04800
Br1826     Br  0.94101687  0.12034632  0.84988022     0.00800
Br1827     Br  0.45197881  0.11365671  0.96165363     0.01300
Br1828     Br  0.06416826  0.03633029  0.89795192    -0.03100
Br1829     Br  0.59415254  0.18165596  0.86779796     0.01400
Br1830     Br  0.93253612  0.08594251  0.89082472    -0.02400
Br1831     Br  0.46733574  0.16102263  0.92403887    -0.03300
Br1832     Br  0.05973562  0.49583152  0.93796536     0.00700
C1833       C  0.86574942  0.95383025  0.85828942     0.02100
C1834       C  0.90025280  0.97596886  0.85994657     0.04900
C1835       C  0.92277386  0.97398659  0.87564526    -0.11100
C1836       C  0.90774588  0.95442485  0.89050565     0.24200
C1837       C  0.87488007  0.43027229  0.88834866    -0.11700
C1838       C  0.85662110  0.42716630  0.87163718     0.05600
C1839       C  0.92146617  0.96470653  0.90863649     0.28000
C1840       C  0.95236014  0.94423230  0.91705810    -0.12400
C1841       C  0.96344181  0.95338512  0.93453352     0.06100
C1842       C  0.94653995  0.98555628  0.94300115    -0.08400
C1843       C  0.91420182  0.00470171  0.93499774     0.07000
C1844       C  0.90167492  0.99427870  0.91789514    -0.12700
Br1845     Br  0.85002332  0.40804586  0.90882742    -0.04800
Br1846     Br  0.91410531  0.01220429  0.84171895     0.00800
Br1847     Br  0.99938648  0.91998744  0.94729552     0.01300
Br1848     Br  0.85698880  0.02026750  0.90715593    -0.03100
Br1849     Br  0.81505479  0.39101828  0.86760519     0.01400
Br1850     Br  0.97268692  0.99974037  0.87720018    -0.02400
Br1851     Br  0.98063646  0.90473731  0.90453182    -0.03300
Br1852     Br  0.88467796  0.04265398  0.94809518     0.00700
C1853       C  0.63070941  0.53120135  0.14221617     0.02100
C1854       C  0.64557842  0.05066862  0.12725761     0.04900
C1855       C  0.62249019  0.05373091  0.11178587    -0.11100
C1856       C  0.58440871  0.53723839  0.11119115     0.24200
C1857       C  0.56765343  0.52253242  0.12698146    -0.11700
C1858       C  0.59109073  0.51896527  0.14239841     0.05600
C1859       C  0.56523868  0.53073425  0.09360987     0.28000
C1860       C  0.53243702  0.55305711  0.08797798    -0.12400
C1861       C  0.51535401  0.54681141  0.07117824     0.06100
C1862       C  0.52913195  0.51651327  0.06044648    -0.08400
C1863       C  0.56405722  0.99668159  0.06532663     0.07000
C1864       C  0.58217323  0.00372533  0.08178734    -0.12700
Br1865     Br  0.51347400  0.50569367  0.12749593    -0.04800
Br1866     Br  0.69893911  0.06971713  0.12762089     0.00800
Br1867     Br  0.47589698  0.58213289  0.06216490     0.01300
Br1868     Br  0.63101618  0.97680922  0.08770338    -0.03100
Br1869     Br  0.57048653  0.49422011  0.16329161     0.01400
Br1870     Br  0.64437611  0.07672996  0.09072205    -0.02400
Br1871     Br  0.51157456  0.59303567  0.10291453    -0.03300
Br1872     Br  0.58932659  0.96263167  0.04864604     0.00700
C1873       C  0.47402500  0.45199028  0.05922539     0.02100
C1874       C  0.49264898  0.41611043  0.06160282     0.04900
C1875       C  0.49134409  0.39808194  0.07830333    -0.11100
C1876       C  0.47234517  0.41646461  0.09269956     0.24200
C1877       C  0.44952875  0.44987791  0.08958682    -0.11700
C1878       C  0.44907436  0.46650571  0.07260917     0.05600
C1879       C  0.47695105  0.40080498  0.11096704     0.28000
C1880       C  0.94561188  0.38132716  0.11920234    -0.12400
C1881       C  0.95133707  0.36359070  0.13576695     0.06100
C1882       C  0.48858918  0.36507749  0.14410081    -0.08400
C1883       C  0.51905158  0.38689635  0.13654843     0.07000
C1884       C  0.51369140  0.40357318  0.11977538    -0.12700
Br1885     Br  0.41962618  0.47366790  0.10846932    -0.04800
Br1886     Br  0.01871270  0.39158586  0.04197335     0.00800
Br1887     Br  0.90962099  0.33397921  0.14634500     0.01300
Br1888     Br  0.55839583  0.42572800  0.10805808    -0.03100
Br1889     Br  0.41183898  0.00705409  0.06708866     0.01400
Br1890     Br  0.01573143  0.34866410  0.08152932    -0.02400
Br1891     Br  0.89679467  0.37464452  0.10675668    -0.03300
Br1892     Br  0.56935883  0.39077519  0.14861064     0.00700
C1893       C  0.84765754  0.28949247  0.63892262     0.02100
C1894       C  0.82937124  0.30469677  0.62365058     0.04900
C1895       C  0.85060387  0.30672461  0.60764529    -0.11100
C1896       C  0.89103258  0.29565521  0.60717093     0.24200
C1897       C  0.91037487  0.28472363  0.62303539    -0.11700
C1898       C  0.88849434  0.28082759  0.63881087     0.05600
C1899       C  0.91119382  0.29004219  0.58981824     0.28000
C1900       C  0.90052543  0.25865859  0.57913133    -0.12400
C1901       C  0.92023073  0.25200588  0.56300673     0.06100
C1902       C  0.95112827  0.27608467  0.55763949    -0.08400
C1903       C  0.95863493  0.30970949  0.56719119     0.07000
C1904       C  0.94029488  0.31569901  0.58370481    -0.12700
Br1905     Br  0.96602746  0.27197206  0.62299264    -0.04800
Br1906     Br  0.77421973  0.31990306  0.62451075     0.00800
Br1907     Br  0.90233203  0.21223118  0.54743802     0.01300
Br1908     Br  0.95743886  0.35773326  0.59809163    -0.03100
Br1909     Br  0.91329860  0.25987309  0.65980276     0.01400
Br1910     Br  0.82306173  0.32092691  0.58606440    -0.02400
Br1911     Br  0.85946261  0.22399771  0.58664265    -0.03300
Br1912     Br  0.99194865  0.34881169  0.55715085     0.00700
C1913       C  0.55487873  0.24083137  0.44436790     0.02100
C1914       C  0.58301785  0.26395464  0.43588401     0.04900
C1915       C  0.59936342  0.25273459  0.41958715    -0.11100
C1916       C  0.59329713  0.21539525  0.41314778     0.24200
C1917       C  0.56925144  0.19028109  0.42292627    -0.11700
C1918       C  0.54850883  0.20349444  0.43799176     0.05600
C1919       C  0.61424738  0.20247314  0.39677509     0.28000
C1920       C  0.59329326  0.19754347  0.38070897    -0.12400
C1921       C  0.61416127  0.19590954  0.36451078     0.06100
C1922       C  0.65594364  0.19720114  0.36448919    -0.08400
C1923       C  0.67659623  0.19473997  0.38073165     0.07000
C1924       C  0.65597019  0.19874929  0.39683148    -0.12700
Br1925     Br  0.56644079  0.13743603  0.41620644    -0.04800
Br1926     Br  0.60439513  0.30768799  0.44781192     0.00800
Br1927     Br  0.58541928  0.19606376  0.34240418     0.01300
Br1928     Br  0.68518359  0.20262362  0.41881142    -0.03100
Br1929     Br  0.51252734  0.16981682  0.45010195     0.01400
Br1930     Br  0.62990858  0.28915228  0.40629300    -0.02400
Br1931     Br  0.53610976  0.19535925  0.38060278    -0.03300
Br1932     Br  0.73374457  0.19052603  0.38063921     0.00700
C1933       C  0.46840954  0.38476126  0.35806270     0.02100
C1934       C  0.48941366  0.35005657  0.35998293     0.04900
C1935       C  0.49210044  0.33278289  0.37676999    -0.11100
C1936       C  0.46976440  0.34739475  0.39107757     0.24200
C1937       C  0.44425145  0.37906896  0.38841780    -0.11700
C1938       C  0.44464253  0.39854724  0.37209393     0.05600
C1939       C  0.47613429  0.33194739  0.40920281     0.28000
C1940       C  0.95865270  0.29745744  0.41419697    -0.12400
C1941       C  0.96593672  0.28245725  0.43121749     0.06100
C1942       C  0.49211565  0.30108559  0.44298635    -0.08400
C1943       C  0.50543821  0.33797229  0.43861211     0.07000
C1944       C  0.49900908  0.35261097  0.42146931    -0.12700
Br1945     Br  0.91199908  0.39852875  0.40756523    -0.04800
Br1946     Br  0.51943301  0.32990131  0.34023898     0.00800
Br1947     Br  0.93708419  0.23859843  0.43934470     0.01300
Br1948     Br  0.52272412  0.40038146  0.41459391    -0.03100
Br1949     Br  0.41652474  0.44654899  0.36960151     0.01400
Br1950     Br  0.53137400  0.29357330  0.38082733    -0.02400
Br1951     Br  0.92559112  0.27016919  0.39781642    -0.03300
Br1952     Br  0.52920263  0.36998526  0.45641975     0.00700
C1953       C  0.69096662  0.50700994  0.44315931     0.02100
C1954       C  0.69584461  0.04357434  0.43552171     0.04900
C1955       C  0.67675941  0.05279007  0.41941609    -0.11100
C1956       C  0.65469080  0.52499956  0.41043012     0.24200
C1957       C  0.64912616  0.48891127  0.41837370    -0.11700
C1958       C  0.66431583  0.48145763  0.43532471     0.05600
C1959       C  0.63356967  0.53439246  0.39366150     0.28000
C1960       C  0.59185365  0.53791560  0.39381969    -0.12400
C1961       C  0.57083781  0.53892223  0.37776656     0.06100
C1962       C  0.59114885  0.53372404  0.36158060    -0.08400
C1963       C  0.63295165  0.53367632  0.36131623     0.07000
C1964       C  0.65419390  0.53567380  0.37735569    -0.12700
Br1965     Br  0.62033348  0.44940937  0.40627936    -0.04800
Br1966     Br  0.72708097  0.08183356  0.44727035     0.00800
Br1967     Br  0.51363663  0.04301395  0.37788112     0.01300
Br1968     Br  0.71131709  0.53848950  0.37686734    -0.03100
Br1969     Br  0.64235981  0.44033691  0.44904073     0.01400
Br1970     Br  0.67985787  0.10361610  0.40982633    -0.02400
Br1971     Br  0.56301999  0.03734666  0.41601344    -0.03300
Br1972     Br  0.66097981  0.52596239  0.33928210     0.00700
C1973       C  0.75225681  0.44518253  0.44352875     0.02100
C1974       C  0.77574861  0.46232324  0.43025921     0.04900
C1975       C  0.78391786  0.44283518  0.41428848    -0.11100
C1976       C  0.76761368  0.40651936  0.41117663     0.24200
C1977       C  0.74512402  0.38893223  0.42466397    -0.11700
C1978       C  0.73962652  0.40718681  0.44114507     0.05600
C1979       C  0.77350156  0.38720153  0.39367576     0.28000
C1980       C  0.75306143  0.40078142  0.37855252    -0.12400
C1981       C  0.75721464  0.38211432  0.36214971     0.06100
C1982       C  0.77781270  0.34702998  0.36120646    -0.08400
C1983       C  0.79927041  0.33380115  0.37610498     0.07000
C1984       C  0.79803964  0.35437868  0.39217280    -0.12700
Br1985     Br  0.71998509  0.34063766  0.42027713    -0.04800
Br1986     Br  0.79928871  0.51133462  0.43445920     0.00800
Br1987     Br  0.73034247  0.40161210  0.34136855     0.01300
Br1988     Br  0.82720234  0.33576021  0.41250547    -0.03100
Br1989     Br  0.71670923  0.37899930  0.46060822     0.01400
Br1990     Br  0.81753093  0.46584015  0.39660302    -0.02400
Br1991     Br  0.71440629  0.44108624  0.38086151    -0.03300
Br1992     Br  0.82741211  0.28568328  0.37479898     0.00700
C1993       C  0.72805799  0.04851187  0.55783643     0.02100
C1994       C  0.75425559  0.07736783  0.56316176     0.04900
C1995       C  0.74786650  0.09711100  0.57918035    -0.11100
C1996       C  0.71417548  0.08911008  0.58974323     0.24200
C1997       C  0.68624322  0.06237939  0.58356018    -0.11700
C1998       C  0.69267270  0.04305729  0.56742127     0.05600
C1999       C  0.70746163  0.11054476  0.60665528     0.28000
C2000       C  0.71241109  0.09232984  0.62330976    -0.12400
C2001       C  0.71263317  0.11410781  0.63904482     0.06100
C2002       C  0.70761212  0.15410949  0.63828886    -0.08400
C2003       C  0.69851909  0.17166578  0.62186959     0.07000
C2004       C  0.69890140  0.15014895  0.60610500    -0.12700
Br2005     Br  0.63895134  0.05169133  0.59697146    -0.04800
Br2006     Br  0.79614979  0.09312475  0.54748162     0.00800
Br2007     Br  0.72323012  0.08957352  0.66151074     0.01300
Br2008     Br  0.68928130  0.17541561  0.58359244    -0.03100
Br2009     Br  0.65141953  0.51137564  0.55776420     0.01400
Br2010     Br  0.78550853  0.13544377  0.58640935    -0.02400
Br2011     Br  0.72158351  0.03789279  0.62469236    -0.03300
Br2012     Br  0.68818520  0.22596871  0.62090717     0.00700
C2013       C  0.02023987  0.11869058  0.64281096     0.02100
C2014       C  0.98549112  0.13812282  0.63728280     0.04900
C2015       C  0.98456413  0.15724611  0.62088080    -0.11100
C2016       C  0.01912590  0.15915656  0.61044037     0.24200
C2017       C  0.55437697  0.14165726  0.61656569    -0.11700
C2018       C  0.55499678  0.12129210  0.63266752     0.05600
C2019       C  0.01826490  0.17859491  0.59287936     0.28000
C2020       C  0.00316564  0.15958606  0.57790058    -0.12400
C2021       C  0.00129781  0.17846237  0.56139229     0.06100
C2022       C  0.01369429  0.21673468  0.55991770    -0.08400
C2023       C  0.03296210  0.23393917  0.57439568     0.07000
C2024       C  0.03482542  0.21515401  0.59089623    -0.12700
Br2025     Br  0.60060473  0.14304384  0.60186778    -0.04800
Br2026     Br  0.93844105  0.13652636  0.65182454     0.00800
Br2027     Br  0.48387391  0.15113432  0.54077062     0.01300
Br2028     Br  0.06157476  0.23880935  0.61061463    -0.03100
Br2029     Br  0.60217316  0.09410366  0.64008413     0.01400
Br2030     Br  0.93508197  0.17747983  0.61202321    -0.02400
Br2031     Br  0.48598841  0.10738299  0.58004909    -0.03300
Br2032     Br  0.06045366  0.28131855  0.57119290     0.00700
C2033       C  0.89165427  0.98314256  0.64050851     0.02100
C2034       C  0.86810481  0.01467188  0.63531973     0.04900
C2035       C  0.84680989  0.01341761  0.61941376    -0.11100
C2036       C  0.84735291  0.98004112  0.60912115     0.24200
C2037       C  0.86842075  0.44769163  0.61503155    -0.11700
C2038       C  0.89084120  0.44915113  0.63070780     0.05600
C2039       C  0.82724623  0.97980225  0.59168787     0.28000
C2040       C  0.78896406  0.96462933  0.59006284    -0.12400
C2041       C  0.76900167  0.96697078  0.57372464     0.06100
C2042       C  0.78690278  0.98539427  0.55914403    -0.08400
C2043       C  0.82688495  0.99659646  0.56031469     0.07000
C2044       C  0.84672975  0.99458702  0.57667785    -0.12700
Br2045     Br  0.86779832  0.40235569  0.60103094    -0.04800
Br2046     Br  0.86592537  0.05992648  0.64983946     0.00800
Br2047     Br  0.71885860  0.94202651  0.57098606     0.01300
Br2048     Br  0.90041058  0.01274316  0.57871442    -0.03100
Br2049     Br  0.92173450  0.40558596  0.63849416     0.01400
Br2050     Br  0.81935410  0.05825596  0.61111252    -0.02400
Br2051     Br  0.76409201  0.94079797  0.61027966    -0.03300
Br2052     Br  0.85515287  0.01344446  0.53948903     0.00700
O2053       O  0.93333476  0.90305827  0.25784835    -0.57100
C2054       C  0.82230637  0.91845445  0.22600163     0.75600
O2055       O  0.93318025  0.82761749  0.24578141    -0.58200
C2056       C  0.91837079  0.92181039  0.27054652     0.75500
C2057       C  0.82040411  0.81533670  0.27192262     0.77900
Cd2058     Cd  0.87015842  0.86748711  0.24963669     1.37500
O2059       O  0.83089458  0.92771060  0.24173768    -0.57100
O2060       O  0.85778529  0.81641254  0.27267321    -0.55900
C2061       C  0.92879211  0.82202527  0.22934826     0.77900
O2062       O  0.80510587  0.83657109  0.26015211    -0.58200
O2063       O  0.83612750  0.88627567  0.22111485    -0.56700
O2064       O  0.88140351  0.91764484  0.27260831    -0.56700
O2065       O  0.89656328  0.83469123  0.22277009    -0.55800
N2066       N  0.97444932  0.53295322  0.66068037    -0.35900
N2067       N  0.02261496  0.56735628  0.68718053    -0.56400
N2068       N  0.98519486  0.51763577  0.71404643    -0.35800
N2069       N  0.93907349  0.48161162  0.68565701    -0.56400
C2070       C  0.99889271  0.55396391  0.65057427     0.27700
C2071       C  0.95584168  0.50865511  0.64976266     0.27700
C2072       C  0.01668081  0.53121659  0.72331897     0.27700
C2073       C  0.97137537  0.48597080  0.72249694     0.27700
C2074       C  0.02596941  0.59413767  0.67426310     0.36400
C2075       C  0.53567494  0.58339866  0.70227932     0.36400
C2076       C  0.91300569  0.47876633  0.67212127     0.36400
C2077       C  0.92038728  0.96834891  0.70014541     0.36400
C2078       C  0.99676708  0.54215025  0.63304812    -0.21100
C2079       C  0.96946028  0.51337116  0.63253860    -0.21100
C2080       C  0.02240199  0.50824083  0.73814851    -0.21100
C2081       C  0.99397930  0.47983078  0.73762805    -0.21100
C2082       C  0.54163141  0.62732012  0.68106519    -0.22200
C2083       C  0.54794404  0.62054001  0.69881285    -0.22200
C2084       C  0.87777341  0.96334473  0.67787641    -0.22200
C2085       C  0.88230097  0.95682013  0.69569487    -0.22200
C2086       C  0.01650058  0.58790465  0.65631176    -0.17500
C2087       C  0.92161369  0.48860741  0.65449666    -0.17500
C2088       C  0.93842815  0.96341531  0.71692987    -0.17500
C2089       C  0.53941361  0.56415868  0.71881193    -0.17500
H2090       H  0.01134948  0.55464991  0.62166420     0.15400
H2091       H  0.95879575  0.49942297  0.62069286     0.15400
H2092       H  0.54480450  0.51121250  0.74823788     0.15400
H2093       H  0.99083205  0.95705335  0.74722345     0.15400
H2094       H  0.54824327  0.65338342  0.67394356     0.13700
H2095       H  0.55992603  0.64085286  0.70812661     0.13700
H2096       H  0.85164973  0.95737162  0.67006113     0.13700
H2097       H  0.85993396  0.94506368  0.70437917     0.13700
H2098       H  0.96484154  0.54030918  0.67334156     0.26900
H2099       H  0.97191635  0.53101117  0.70321730     0.26900
C2100       C  0.73530275  0.99113632  0.49248219     0.04300
S2101       S  0.76379648  0.95576786  0.48056991    -0.09700
C2102       C  0.74023256  0.96706401  0.45977948    -0.00900
C2103       C  0.71269822  0.99551066  0.45952396    -0.00900
S2104       S  0.70038592  0.51910377  0.47988213    -0.09700
C2105       C  0.73741038  0.52405914  0.54217119    -0.00900
C2106       C  0.76357037  0.49458822  0.54289365    -0.00900
S2107       S  0.77230089  0.96693329  0.52319732    -0.09700
C2108       C  0.73982862  0.49670014  0.51009072     0.04300
S2109       S  0.71339325  0.53428336  0.52146284    -0.09700
N2110       N  0.49233183  0.99497604  0.28874847    -0.35900
N2111       N  0.54717516  0.02448198  0.31576759    -0.56400
N2112       N  0.52237465  0.96715871  0.33979303    -0.41800
N2113       N  0.46846901  0.93635684  0.31395879    -0.56400
C2114       C  0.51758992  0.01602357  0.27863029     0.27700
C2115       C  0.47273329  0.97022394  0.27801060     0.27700
C2116       C  0.55495227  0.98054366  0.34794378     0.27700
C2117       C  0.51505575  0.93262363  0.34690173     0.27700
C2118       C  0.54923112  0.55192859  0.30332072     0.36400
C2119       C  0.56153655  0.03966802  0.33089460     0.36400
C2120       C  0.93926338  0.93275284  0.30172633     0.36400
C2121       C  0.45680325  0.91705903  0.32861732     0.36400
C2122       C  0.51327764  0.00502818  0.26107359    -0.21100
C2123       C  0.48486878  0.97658350  0.26065843    -0.21100
C2124       C  0.56901345  0.95405816  0.36012737    -0.21100
C2125       C  0.54363638  0.92382869  0.35960249    -0.21100
C2126       C  0.56469113  0.58502396  0.31067682    -0.22200
C2127       C  0.57229961  0.57724370  0.32825080    -0.22200
C2128       C  0.90905034  0.91069118  0.30892278    -0.22200
C2129       C  0.92029211  0.90085956  0.32582403    -0.22200
C2130       C  0.54348439  0.54526933  0.28502141    -0.17500
C2131       C  0.94306972  0.94368495  0.28361662    -0.17500
C2132       C  0.48030016  0.91175711  0.34387265    -0.17500
C2133       C  0.56876795  0.01807518  0.34629204    -0.17500
H2134       H  0.52887512  0.51626025  0.24968822     0.15400
H2135       H  0.97435665  0.96260419  0.24882027     0.15400
H2136       H  0.59412118  0.95689754  0.36891077     0.15400
H2137       H  0.54551277  0.89901712  0.36813299     0.15400
H2138       H  0.57096425  0.61163308  0.30393938     0.13700
H2139       H  0.58577408  0.59631006  0.33772901     0.13700
H2140       H  0.88177962  0.90180109  0.30284847     0.13700
H2141       H  0.90391084  0.88314494  0.33497034     0.13700
H2142       H  0.48662390  0.99920654  0.30217613     0.26900
H2143       H  0.50263575  0.98323000  0.33211408     0.26900
C2144       C  0.51047081  0.76389301  0.49293033     0.04300
S2145       S  0.98016942  0.79627473  0.47980149    -0.09700
C2146       C  0.50458466  0.78226666  0.45971240    -0.00900
C2147       C  0.53314664  0.75491580  0.46033771    -0.00900
S2148       S  0.54708561  0.73560503  0.48151276    -0.09700
C2149       C  0.00555398  0.73883086  0.54337485    -0.00900
C2150       C  0.97636992  0.76546460  0.54231771    -0.00900
S2151       S  0.96708229  0.78865016  0.52157329    -0.09700
C2152       C  0.00482314  0.76110220  0.51053335     0.04300
S2153       S  0.53509585  0.72936292  0.52401813    -0.09700
N2154       N  0.76998673  0.72874658  0.65858764    -0.35900
N2155       N  0.79871301  0.78339596  0.68372702    -0.56400
N2156       N  0.74205108  0.75621416  0.71031224    -0.35800
N2157       N  0.71548018  0.69912916  0.68406248    -0.56400
C2158       C  0.80436953  0.73935688  0.65097610     0.27700
C2159       C  0.75907837  0.69592371  0.65076025     0.27700
C2160       C  0.76756774  0.77681415  0.72047777     0.27700
C2161       C  0.72337714  0.73041398  0.72092556     0.27700
C2162       C  0.81501623  0.79725343  0.66867057     0.36400
C2163       C  0.80067592  0.81155208  0.69583128     0.36400
C2164       C  0.70036849  0.68330118  0.66913394     0.36400
C2165       C  0.68822679  0.69455271  0.69701759     0.36400
C2166       C  0.81585199  0.71267252  0.63834827    -0.21100
C2167       C  0.78714885  0.68514150  0.63821074    -0.21100
C2168       C  0.76421101  0.76454025  0.73791502    -0.21100
C2169       C  0.73655262  0.73547207  0.73819888    -0.21100
C2170       C  0.82702229  0.83451229  0.67102021    -0.22200
C2171       C  0.81766874  0.84375199  0.68823454    -0.22200
C2172       C  0.66304188  0.66904482  0.67247041    -0.22200
C2173       C  0.65535216  0.67600733  0.69013292    -0.22200
C2174       C  0.82219957  0.77507412  0.65347919    -0.17500
C2175       C  0.72205378  0.67846069  0.65319770    -0.17500
C2176       C  0.69478174  0.70276797  0.71528149    -0.17500
C2177       C  0.79374500  0.80603551  0.71417200    -0.17500
H2178       H  0.84141674  0.71368141  0.62967502     0.15400
H2179       H  0.78632581  0.66071119  0.62945074     0.15400
H2180       H  0.78052620  0.77474941  0.74926805     0.15400
H2181       H  0.72792669  0.71943397  0.74983151     0.15400
H2182       H  0.84178464  0.85268913  0.66149340     0.13700
H2183       H  0.82386639  0.87072195  0.69459636     0.13700
H2184       H  0.64395973  0.65423595  0.66330735     0.13700
H2185       H  0.62871071  0.66788799  0.69713757     0.13700
H2186       H  0.75186029  0.74596079  0.66649326     0.26900
H2187       H  0.73608503  0.76091586  0.69693214     0.26900
N2188       N  0.74906056  0.74042882  0.29081897    -0.35900
N2189       N  0.77550756  0.79716166  0.31660355    -0.56400
N2190       N  0.72444136  0.76382544  0.34270782    -0.35800
N2191       N  0.69696350  0.70807701  0.31808033    -0.56400
C2192       C  0.76717818  0.76630490  0.28003709     0.27700
C2193       C  0.72406593  0.71893821  0.28080681     0.27700
C2194       C  0.73206452  0.79792304  0.35018136     0.27700
C2195       C  0.69131272  0.75060410  0.35054256     0.27700
C2196       C  0.80184096  0.80408939  0.30348867     0.36400
C2197       C  0.78819881  0.81615932  0.33115653     0.36400
C2198       C  0.69472155  0.68099229  0.30551330     0.36400
C2199       C  0.68408059  0.69204715  0.33333787     0.36400
C2200       C  0.75419471  0.76045144  0.26280439    -0.21100
C2201       C  0.72690666  0.73105287  0.26330836    -0.21100
C2202       C  0.70320135  0.80659169  0.36273876    -0.21100
C2203       C  0.67716168  0.77688511  0.36271466    -0.21100
C2204       C  0.83143107  0.82778630  0.30993709    -0.22200
C2205       C  0.82272403  0.83532615  0.32741705    -0.22200
C2206       C  0.68076024  0.64726157  0.31294412    -0.22200
C2207       C  0.67421436  0.65429663  0.33067305    -0.22200
C2208       C  0.79630467  0.79369597  0.28539281    -0.17500
C2209       C  0.69972747  0.68826923  0.28718192    -0.17500
C2210       C  0.67734561  0.71308515  0.34889952    -0.17500
C2211       C  0.76645571  0.81936349  0.34709968    -0.17500
H2212       H  0.76318453  0.77582953  0.25103156     0.15400
H2213       H  0.71108244  0.72000682  0.25198828     0.15400
H2214       H  0.70126939  0.83124874  0.37131450     0.15400
H2215       H  0.65129740  0.77416976  0.37102738     0.15400
H2216       H  0.85631370  0.83945450  0.30284415     0.13700
H2217       H  0.83909713  0.85373561  0.33620596     0.13700
H2218       H  0.67501507  0.62061716  0.30621354     0.13700
H2219       H  0.66213368  0.63453569  0.34028389     0.13700
H2220       H  0.75575299  0.73571217  0.30411589     0.26900
H2221       H  0.74396467  0.74793210  0.33486346     0.26900
C2222       C  0.98098875  0.50654457  0.99345166     0.04300
S2223       S  0.94995532  0.97610657  0.98033941    -0.09700
C2224       C  0.96337482  0.49963967  0.96001827    -0.00900
C2225       C  0.98822738  0.52959892  0.96083814    -0.00900
S2226       S  0.50850078  0.54268742  0.98192981    -0.09700
C2227       C  0.50746824  0.00579801  0.04401707    -0.00900
C2228       C  0.48261865  0.97582378  0.04336970    -0.00900
S2229       S  0.95819578  0.96533376  0.02288790    -0.09700
C2230       C  0.48467797  0.00195157  0.01116313     0.04300
S2231       S  0.51593673  0.53239680  0.02409266    -0.09700
N2232       N  0.78142611  0.51380953  0.84195258    -0.35900
N2233       N  0.72677686  0.55252577  0.81746440    -0.56400
N2234       N  0.75942199  0.50609323  0.78869965    -0.35800
N2235       N  0.81017159  0.46394356  0.81472121    -0.56400
C2236       C  0.75895726  0.53446218  0.85328434     0.27700
C2237       C  0.80286167  0.48873691  0.85181154     0.27700
C2238       C  0.72860141  0.52351554  0.78011295     0.27700
C2239       C  0.77229246  0.47617131  0.77867811     0.27700
C2240       C  0.72354268  0.57620988  0.83158099     0.36400
C2241       C  0.70964704  0.57095329  0.80360677     0.36400
C2242       C  0.83797647  0.95610318  0.82727657     0.36400
C2243       C  0.82508849  0.95059665  0.79928042     0.36400
C2244       C  0.76575212  0.52209406  0.87052500    -0.21100
C2245       C  0.79334104  0.49332020  0.86959494    -0.21100
C2246       C  0.72223804  0.50460861  0.76423191    -0.21100
C2247       C  0.74955497  0.97475900  0.76339066    -0.21100
C2248       C  0.70358343  0.60940762  0.82686692    -0.22200
C2249       C  0.69473290  0.60614096  0.80917084    -0.22200
C2250       C  0.86999721  0.93689314  0.81998497    -0.22200
C2251       C  0.86219924  0.93386409  0.80224223    -0.22200
C2252       C  0.73730077  0.56778130  0.84883380    -0.17500
C2253       C  0.83424478  0.46558354  0.84535829    -0.17500
C2254       C  0.80503146  0.95117026  0.78270906    -0.17500
C2255       C  0.70668940  0.55639402  0.78607029    -0.17500
H2256       H  0.75348767  0.53358450  0.88267838     0.15400
H2257       H  0.80561631  0.47863375  0.88095547     0.15400
H2258       H  0.70000167  0.51134429  0.75432725     0.15400
H2259       H  0.75232148  0.95441921  0.75266553     0.15400
H2260       H  0.69623411  0.63346185  0.83529427     0.13700
H2261       H  0.67968528  0.62771413  0.80128648     0.13700
H2262       H  0.89646425  0.92667768  0.82668420     0.13700
H2263       H  0.88209233  0.92112922  0.79261599     0.13700
H2264       H  0.78686909  0.52109351  0.82880490     0.26900
H2265       H  0.77335447  0.51604315  0.80004232     0.26900
N2266       N  0.96838982  0.73088244  0.84152707    -0.35900
N2267       N  0.02323016  0.69557123  0.81662754    -0.56400
N2268       N  0.99058460  0.74564178  0.78854385    -0.35800
N2269       N  0.93954400  0.78409452  0.81504499    -0.56400
C2270       C  0.99075135  0.70901360  0.85251706     0.27700
C2271       C  0.94664668  0.75464414  0.85186583     0.27700
C2272       C  0.02229539  0.72988840  0.77991636     0.27700
C2273       C  0.97723663  0.77619285  0.77894471     0.27700
C2274       C  0.02543578  0.66958263  0.82998042     0.36400
C2275       C  0.03944418  0.67875331  0.80218235     0.36400
C2276       C  0.91298962  0.79202747  0.82808059     0.36400
C2277       C  0.92533260  0.80092609  0.80016725     0.36400
C2278       C  0.98358509  0.71929966  0.86995942    -0.21100
C2279       C  0.95562261  0.74763384  0.86956984    -0.21100
C2280       C  0.02890261  0.75068323  0.76451294    -0.21100
C2281       C  0.00052696  0.77962350  0.76387194    -0.21100
C2282       C  0.54344684  0.63635120  0.82415909    -0.22200
C2283       C  0.55221856  0.64198568  0.80655320    -0.22200
C2284       C  0.88253326  0.81487254  0.82168035    -0.22200
C2285       C  0.88992738  0.82008038  0.80401120    -0.22200
C2286       C  0.01246921  0.67618545  0.84750956    -0.17500
C2287       C  0.91618274  0.77958698  0.84583510    -0.17500
C2288       C  0.94407572  0.80040090  0.78325688    -0.17500
C2289       C  0.04427404  0.69646208  0.78529678    -0.17500
H2290       H  0.99564054  0.70652751  0.88190146     0.15400
H2291       H  0.94298789  0.76038754  0.88129108     0.15400
H2292       H  0.05179920  0.74564342  0.75470427     0.15400
H2293       H  0.99760604  0.80096181  0.75352446     0.15400
H2294       H  0.54936045  0.61065852  0.83177874     0.13700
H2295       H  0.56578258  0.62091141  0.79793178     0.13700
H2296       H  0.85726449  0.82614614  0.82891440     0.13700
H2297       H  0.87073639  0.83582632  0.79506061     0.13700
H2298       H  0.96337159  0.72550741  0.82823040     0.26900
H2299       H  0.97656108  0.73413189  0.79949342     0.26900
O2300       O  0.64876118  0.55362201  0.24180824    -0.57100
C2301       C  0.67480620  0.66465677  0.27492681     0.75600
O2302       O  0.58582007  0.68000409  0.24651240    -0.58200
C2303       C  0.67277097  0.56709137  0.23059411     0.75500
C2304       C  0.56937145  0.56824560  0.27292856     0.77900
Cd2305     Cd  0.62264814  0.61767870  0.25244700     1.37500
O2306       O  0.68655242  0.65274316  0.25998298    -0.57100
O2307       O  0.55734670  0.58375465  0.25870558    -0.55900
C2308       C  0.57645576  0.67197885  0.23074649     0.77900
O2309       O  0.60505554  0.57499114  0.27711358    -0.58200
O2310       O  0.64012818  0.65457764  0.27930504    -0.56700
O2311       O  0.67537280  0.60310515  0.23029711    -0.56700
O2312       O  0.58537215  0.63847401  0.22572824    -0.55800
N2313       N  0.74545412  0.99422738  0.21079161    -0.35900
N2314       N  0.68560721  0.52413896  0.18586326    -0.56400
N2315       N  0.71766153  0.97600968  0.15893424    -0.35800
N2316       N  0.77658705  0.94523031  0.18278969    -0.56400
C2317       C  0.71951812  0.51254612  0.22181916     0.27700
C2318       C  0.76631985  0.96778434  0.22044048     0.27700
C2319       C  0.68159639  0.98424074  0.15206258     0.27700
C2320       C  0.73190251  0.94536318  0.15012783     0.27700
C2321       C  0.68057591  0.54945653  0.19913050     0.36400
C2322       C  0.66447621  0.53759827  0.17186515     0.36400
C2323       C  0.80476679  0.94032816  0.19531171     0.36400
C2324       C  0.79348718  0.93637016  0.16702695     0.36400
C2325       C  0.72453100  0.49811100  0.23881964    -0.21100
C2326       C  0.75343381  0.96966745  0.23792572    -0.21100
C2327       C  0.67243734  0.95812841  0.13893031    -0.21100
C2328       C  0.70420953  0.93333258  0.13777380    -0.21100
C2329       C  0.65578442  0.57912437  0.19339014    -0.22200
C2330       C  0.64582196  0.57164560  0.17610100    -0.22200
C2331       C  0.84007947  0.92857239  0.18742010    -0.22200
C2332       C  0.83307580  0.92672812  0.16941251    -0.22200
C2333       C  0.69279921  0.54288229  0.21690704    -0.17500
C2334       C  0.79752466  0.94338278  0.21378389    -0.17500
C2335       C  0.77156802  0.93237406  0.15117924    -0.17500
C2336       C  0.65931359  0.01739268  0.15594584    -0.17500
H2337       H  0.70873220  0.50674369  0.25066845     0.15400
H2338       H  0.76352646  0.95252942  0.24901690     0.15400
H2339       H  0.64622556  0.95775213  0.13065260     0.15400
H2340       H  0.70736374  0.91018960  0.12836345     0.15400
H2341       H  0.64427626  0.60287142  0.20096141     0.13700
H2342       H  0.62596379  0.58849521  0.16785534     0.13700
H2343       H  0.86792896  0.92194970  0.19393169     0.13700
H2344       H  0.85406993  0.91758162  0.15936917     0.13700
H2345       H  0.75085133  0.00185924  0.19766657     0.26900
H2346       H  0.73444433  0.99379870  0.16697143     0.26900
C2347       C  0.76039177  0.74249411  0.99281095     0.04300
S2348       S  0.72829980  0.71121107  0.98080382    -0.09700
C2349       C  0.75312052  0.72064649  0.96028024    -0.00900
C2350       C  0.78060506  0.74833463  0.95977436    -0.00900
S2351       S  0.79451752  0.77072801  0.98011864    -0.09700
C2352       C  0.76479021  0.77159289  0.04284367    -0.00900
C2353       C  0.73475625  0.74559187  0.04332798    -0.00900
S2354       S  0.72197711  0.72072498  0.02330953    -0.09700
C2355       C  0.75876279  0.74491253  0.01063446     0.04300
S2356       S  0.79410034  0.77170002  0.02286385    -0.09700
O2357       O  0.56279600  0.58737564  0.74739316    -0.57100
C2358       C  0.67900321  0.57737917  0.77371702     0.75600
O2359       O  0.66466080  0.64401220  0.72507594    -0.58200
C2360       C  0.56950681  0.58051096  0.73122168     0.75500
C2361       C  0.57357974  0.67749098  0.77294192     0.77900
Cd2362     Cd  0.62569877  0.62708574  0.75186718     1.37500
O2363       O  0.68945117  0.58938777  0.75863314    -0.57100
O2364       O  0.60652705  0.66439674  0.77854292    -0.55900
C2365       C  0.67258954  0.67845059  0.72848804     0.77900
O2366       O  0.56588089  0.67061570  0.75682300    -0.58200
O2367       O  0.64412636  0.58661267  0.77829287    -0.56700
O2368       O  0.60259423  0.59186488  0.72547868    -0.56700
O2369       O  0.65973058  0.69031092  0.74330812    -0.55800
O2370       O  0.83188065  0.93502141  0.75382754    -0.57100
C2371       C  0.81943097  0.82905847  0.72643951     0.75600
O2372       O  0.91508589  0.93642290  0.74480059    -0.58200
C2373       C  0.82160845  0.92429556  0.76918919     0.75500
C2374       C  0.92614527  0.82672705  0.76970764     0.77900
Cd2375     Cd  0.87373081  0.87613328  0.74796297     1.37500
O2376       O  0.85436244  0.83806925  0.72196210    -0.57100
O2377       O  0.91857256  0.86127756  0.77329580    -0.55900
C2378       C  0.92082772  0.93276891  0.72834558     0.77900
O2379       O  0.91289812  0.81516898  0.75504226    -0.58200
O2380       O  0.80826815  0.84163118  0.74137685    -0.56700
O2381       O  0.83102087  0.89030319  0.77344161    -0.56700
O2382       O  0.90765444  0.90229548  0.72159072    -0.55800
N2383       N  0.51494716  0.75702082  0.21402483    -0.35900
N2384       N  0.48745958  0.81245450  0.18764592    -0.56400
N2385       N  0.54260347  0.78001333  0.16193387    -0.35800
N2386       N  0.56681685  0.72159236  0.18679936    -0.56400
C2387       C  0.48223446  0.77133348  0.22245316     0.27700
C2388       C  0.52696900  0.72470977  0.22261063     0.27700
C2389       C  0.52082452  0.80392191  0.15166460     0.27700
C2390       C  0.56194766  0.75575693  0.15089901     0.27700
C2391       C  0.96917689  0.82676985  0.20213634     0.36400
C2392       C  0.48676600  0.84063130  0.17534539     0.36400
C2393       C  0.58061714  0.70359565  0.20146722     0.36400
C2394       C  0.59372047  0.71469581  0.17376507     0.36400
C2395       C  0.47371150  0.74786630  0.23678839    -0.21100
C2396       C  0.50192961  0.71871077  0.23694343    -0.21100
C2397       C  0.52632357  0.79484441  0.13394213    -0.21100
C2398       C  0.55249459  0.76476643  0.13344387    -0.21100
C2399       C  0.95697519  0.86427010  0.19895764    -0.22200
C2400       C  0.96813665  0.87304222  0.18195728    -0.22200
C2401       C  0.61647632  0.68538712  0.19758886    -0.22200
C2402       C  0.62418475  0.69163481  0.17999882    -0.22200
C2403       C  0.96103651  0.80571424  0.21777633    -0.17500
C2404       C  0.56042536  0.70116071  0.21800653    -0.17500
C2405       C  0.59042700  0.72800543  0.15612828    -0.17500
C2406       C  0.49932489  0.83613498  0.15768932    -0.17500
H2407       H  0.94983963  0.75133464  0.24616935     0.15400
H2408       H  0.50353973  0.69551961  0.24644871     0.15400
H2409       H  0.51366492  0.80907288  0.12247153     0.15400
H2410       H  0.56356508  0.75175344  0.12143224     0.15400
H2411       H  0.94159473  0.88346872  0.20791906     0.13700
H2412       H  0.96246665  0.89978903  0.17512388     0.13700
H2413       H  0.63559216  0.66948584  0.20650918     0.13700
H2414       H  0.64969401  0.68096947  0.17274594     0.13700
H2415       H  0.53045561  0.77020413  0.20386069     0.26900
H2416       H  0.54811454  0.78355808  0.17538373     0.26900
C2417       C  0.71246206  0.73376568  0.05950838     0.02100
C2418       C  0.72130077  0.69813030  0.06757790     0.04900
C2419       C  0.70442475  0.68872732  0.08411386    -0.11100
C2420       C  0.67628997  0.71335022  0.09201926     0.24200
C2421       C  0.66401955  0.74678037  0.08286993    -0.11700
C2422       C  0.68226805  0.75709386  0.06672782     0.05600
C2423       C  0.66001789  0.70537362  0.11006087     0.28000
C2424       C  0.62269566  0.68811265  0.11210704    -0.12400
C2425       C  0.60335010  0.68937827  0.12867389     0.06100
C2426       C  0.61802861  0.71315277  0.14216852    -0.08400
C2427       C  0.65667060  0.72776942  0.14059259     0.07000
C2428       C  0.67881843  0.72063470  0.12511968    -0.12700
Br2429     Br  0.62281907  0.77908353  0.09271212    -0.04800
Br2430     Br  0.76004601  0.66392254  0.05701687     0.00800
Br2431     Br  0.55445281  0.66266512  0.13243563     0.01300
Br2432     Br  0.73482059  0.73025116  0.12490810    -0.03100
Br2433     Br  0.66608951  0.80305085  0.05444833     0.01400
Br2434     Br  0.72220499  0.64365612  0.09650281    -0.02400
Br2435     Br  0.59627517  0.66662894  0.09190737    -0.03300
Br2436     Br  0.67792100  0.76078127  0.15860560     0.00700
C2437       C  0.77582050  0.79854228  0.05778213     0.02100
C2438       C  0.79491458  0.83455592  0.05510150     0.04900
C2439       C  0.80682681  0.85626320  0.06999846    -0.11100
C2440       C  0.78909676  0.84896611  0.08665055     0.24200
C2441       C  0.76428926  0.81734955  0.08797764    -0.11700
C2442       C  0.76758070  0.78849591  0.07542102     0.05600
C2443       C  0.79494645  0.87298185  0.10276702     0.28000
C2444       C  0.80485854  0.85501602  0.11911895    -0.12400
C2445       C  0.79834400  0.87424736  0.13522329     0.06100
C2446       C  0.78853460  0.91350404  0.13507723    -0.08400
C2447       C  0.78607550  0.93300004  0.11864250     0.07000
C2448       C  0.78484919  0.91222548  0.10273529    -0.12700
Br2449     Br  0.72247274  0.81597191  0.10522174    -0.04800
Br2450     Br  0.80121707  0.85857737  0.03220800     0.00800
Br2451     Br  0.79717069  0.84496611  0.15698623     0.01300
Br2452     Br  0.76159798  0.93639075  0.08208134    -0.03100
Br2453     Br  0.79233560  0.74267239  0.08417031     0.01400
Br2454     Br  0.84675780  0.89496994  0.06719938    -0.02400
Br2455     Br  0.82521807  0.80313941  0.11974611    -0.03300
Br2456     Br  0.78004186  0.98794042  0.11803538     0.00700
C2457       C  0.79918941  0.76139770  0.94297079     0.02100
C2458       C  0.83219929  0.74187961  0.93581752     0.04900
C2459       C  0.84629595  0.75157141  0.91885397    -0.11100
C2460       C  0.82782384  0.78122186  0.90904679     0.24200
C2461       C  0.79612653  0.80201719  0.91664192    -0.11700
C2462       C  0.78317767  0.79327548  0.93390386     0.05600
C2463       C  0.84361425  0.79130219  0.89124582     0.28000
C2464       C  0.87919631  0.81198077  0.88979355    -0.12400
C2465       C  0.89776896  0.81568596  0.87319173     0.06100
C2466       C  0.88596153  0.79203824  0.85915030    -0.08400
C2467       C  0.84928591  0.77312804  0.86019881     0.07000
C2468       C  0.82679892  0.77518061  0.87590846    -0.12700
Br2469     Br  0.76936828  0.84154780  0.90334158    -0.04800
Br2470     Br  0.86052749  0.70460165  0.94989269     0.00800
Br2471     Br  0.94428560  0.84656336  0.87037819     0.01300
Br2472     Br  0.77461018  0.75340878  0.87677071    -0.03100
Br2473     Br  0.74614712  0.82710197  0.94572042     0.01400
Br2474     Br  0.89112551  0.72424599  0.90903053    -0.02400
Br2475     Br  0.90698118  0.82791021  0.91083089    -0.03300
Br2476     Br  0.83208716  0.74074682  0.84108280     0.00700
C2477       C  0.74457173  0.69601671  0.94479059     0.02100
C2478       C  0.71898961  0.70876842  0.93119679     0.04900
C2479       C  0.71609606  0.68786737  0.91538415    -0.11100
C2480       C  0.73755692  0.65341338  0.91342460     0.24200
C2481       C  0.75967799  0.63858482  0.92773855    -0.11700
C2482       C  0.76281826  0.65964851  0.94350839     0.05600
C2483       C  0.73635085  0.63282564  0.89632369     0.28000
C2484       C  0.70441427  0.60870563  0.89244298    -0.12400
C2485       C  0.70147536  0.59181474  0.87562441     0.06100
C2486       C  0.73243096  0.59614420  0.86326989    -0.08400
C2487       C  0.76478167  0.61980855  0.86726107     0.07000
C2488       C  0.76687067  0.63789163  0.88381698    -0.12700
Br2489     Br  0.78544048  0.58940974  0.92565669    -0.04800
Br2490     Br  0.68523439  0.75271051  0.93477656     0.00800
Br2491     Br  0.65698780  0.56005545  0.86992638     0.01300
Br2492     Br  0.81382128  0.66548269  0.89022258    -0.03100
Br2493     Br  0.79059329  0.63777935  0.96356063     0.01400
Br2494     Br  0.68282149  0.70637759  0.89634332    -0.02400
Br2495     Br  0.66865636  0.59408564  0.91109746    -0.03300
Br2496     Br  0.80761510  0.62512522  0.85043782     0.00700
C2497       C  0.01789888  0.64677253  0.86167225     0.02100
C2498       C  0.98475867  0.62456362  0.86628956     0.04900
C2499       C  0.98201466  0.60811669  0.88326707    -0.11100
C2500       C  0.01337223  0.61194134  0.89544106     0.24200
C2501       C  0.04645890  0.63414395  0.89088804    -0.11700
C2502       C  0.04935799  0.65049857  0.87384477     0.05600
C2503       C  0.01096768  0.59311629  0.91310449     0.28000
C2504       C  0.98864511  0.60994847  0.92687401    -0.12400
C2505       C  0.98222896  0.58980507  0.94277523     0.06100
C2506       C  0.99887797  0.55294970  0.94505867    -0.08400
C2507       C  0.02591107  0.53878567  0.93234718     0.07000
C2508       C  0.03073250  0.55802891  0.91610485    -0.12700
Br2509     Br  0.58359005  0.64792881  0.90908172    -0.04800
Br2510     Br  0.94113242  0.62022696  0.84987714     0.00800
Br2511     Br  0.45204741  0.61361504  0.96163397     0.01300
Br2512     Br  0.06429377  0.53626096  0.89795616    -0.03100
Br2513     Br  0.59420710  0.68168689  0.86777686     0.01400
Br2514     Br  0.93270990  0.58587589  0.89083148    -0.02400
Br2515     Br  0.46741299  0.66097074  0.92401711    -0.03300
Br2516     Br  0.05965594  0.99585560  0.93794748     0.00700
C2517       C  0.86568225  0.45384495  0.85829381     0.02100
C2518       C  0.90019261  0.47597549  0.85994297     0.04900
C2519       C  0.92273513  0.47398209  0.87563550    -0.11100
C2520       C  0.90770913  0.45443765  0.89050162     0.24200
C2521       C  0.87492977  0.93024835  0.88834488    -0.11700
C2522       C  0.85668052  0.92714731  0.87163081     0.05600
C2523       C  0.92144210  0.46473689  0.90862858     0.28000
C2524       C  0.95232869  0.44426030  0.91705447    -0.12400
C2525       C  0.96342486  0.45343596  0.93452552     0.06100
C2526       C  0.94655165  0.48563329  0.94298325    -0.08400
C2527       C  0.91423228  0.50479634  0.93497224     0.07000
C2528       C  0.90168205  0.49434399  0.91787660    -0.12700
Br2529     Br  0.85007989  0.90799895  0.90881987    -0.04800
Br2530     Br  0.91402753  0.51220759  0.84171183     0.00800
Br2531     Br  0.99935385  0.42003690  0.94729546     0.01300
Br2532     Br  0.85700622  0.52034271  0.90713233    -0.03100
Br2533     Br  0.81510099  0.89101377  0.86759609     0.01400
Br2534     Br  0.97268436  0.49968005  0.87717210    -0.02400
Br2535     Br  0.98057989  0.40473211  0.90453941    -0.03300
Br2536     Br  0.88477013  0.54282955  0.94804676     0.00700
C2537       C  0.63084933  0.03126551  0.14220410     0.02100
C2538       C  0.64544923  0.55062465  0.12727666     0.04900
C2539       C  0.62238537  0.55368109  0.11179675    -0.11100
C2540       C  0.58450078  0.03730874  0.11119619     0.24200
C2541       C  0.56776073  0.02262937  0.12699585    -0.11700
C2542       C  0.59121813  0.01907193  0.14240644     0.05600
C2543       C  0.56530914  0.03078810  0.09362146     0.28000
C2544       C  0.53250451  0.05310965  0.08799079    -0.12400
C2545       C  0.51543448  0.04687825  0.07118769     0.06100
C2546       C  0.52920550  0.01657766  0.06045674    -0.08400
C2547       C  0.56399876  0.49663716  0.06531258     0.07000
C2548       C  0.58210987  0.50367862  0.08177477    -0.12700
Br2549     Br  0.51358272  0.00579539  0.12753348    -0.04800
Br2550     Br  0.69879807  0.56970218  0.12765828     0.00800
Br2551     Br  0.47601338  0.08222749  0.06216631     0.01300
Br2552     Br  0.63095768  0.47677474  0.08769111    -0.03100
Br2553     Br  0.57061766  0.99440853  0.16332230     0.01400
Br2554     Br  0.64427631  0.57671943  0.09074445    -0.02400
Br2555     Br  0.51160808  0.09306156  0.10293281    -0.03300
Br2556     Br  0.58929888  0.46262797  0.04862342     0.00700
C2557       C  0.47401714  0.95212477  0.05925615     0.02100
C2558       C  0.49259706  0.91623048  0.06164911     0.04900
C2559       C  0.49127128  0.89823839  0.07835782    -0.11100
C2560       C  0.47231567  0.91668198  0.09275003     0.24200
C2561       C  0.44954613  0.95012083  0.08962290    -0.11700
C2562       C  0.44908633  0.96669498  0.07263386     0.05600
C2563       C  0.47694545  0.90106793  0.11102674     0.28000
C2564       C  0.94563161  0.88164342  0.11929516    -0.12400
C2565       C  0.95137579  0.86390001  0.13585697     0.06100
C2566       C  0.48866047  0.86532369  0.14415374    -0.08400
C2567       C  0.51913252  0.88708416  0.13657294     0.07000
C2568       C  0.51373271  0.90376129  0.11980255    -0.12700
Br2569     Br  0.41973655  0.97403983  0.10849920    -0.04800
Br2570     Br  0.01860575  0.89154691  0.04203561     0.00800
Br2571     Br  0.90966330  0.83428389  0.14643738     0.01300
Br2572     Br  0.55843394  0.92582518  0.10804737    -0.03100
Br2573     Br  0.41181487  0.50686982  0.06708863     0.01400
Br2574     Br  0.01566893  0.84879038  0.08163083    -0.02400
Br2575     Br  0.89677057  0.87501617  0.10687775    -0.03300
Br2576     Br  0.56949702  0.89089060  0.14859398     0.00700
C2577       C  0.84762490  0.78955139  0.63894015     0.02100
C2578       C  0.82933632  0.80472109  0.62366163     0.04900
C2579       C  0.85056474  0.80670156  0.60765433    -0.11100
C2580       C  0.89099761  0.79564444  0.60718690     0.24200
C2581       C  0.91034404  0.78476005  0.62305720    -0.11700
C2582       C  0.88846351  0.78089731  0.63883406     0.05600
C2583       C  0.91115807  0.78998896  0.58983782     0.28000
C2584       C  0.90050050  0.75857000  0.57917187    -0.12400
C2585       C  0.92020708  0.75187526  0.56305104     0.06100
C2586       C  0.95107400  0.77596864  0.55765908    -0.08400
C2587       C  0.95856467  0.80962483  0.56719091     0.07000
C2588       C  0.94024162  0.81564302  0.58370613    -0.12700
Br2589     Br  0.96599601  0.77200161  0.62301997    -0.04800
Br2590     Br  0.77418714  0.81993608  0.62451706     0.00800
Br2591     Br  0.90234790  0.71201173  0.54752267     0.01300
Br2592     Br  0.95737803  0.85772030  0.59806867    -0.03100
Br2593     Br  0.91326422  0.75997826  0.65983465     0.01400
Br2594     Br  0.82301364  0.82082413  0.58606366    -0.02400
Br2595     Br  0.85943279  0.72393241  0.58670355    -0.03300
Br2596     Br  0.99183488  0.84872957  0.55712365     0.00700
C2597       C  0.55442236  0.74073196  0.44431388     0.02100
C2598       C  0.58260581  0.76386698  0.43586606     0.04900
C2599       C  0.59896931  0.75271134  0.41956246    -0.11100
C2600       C  0.59289692  0.71540005  0.41308813     0.24200
C2601       C  0.56880908  0.69026355  0.42283310    -0.11700
C2602       C  0.54802921  0.70343247  0.43789654     0.05600
C2603       C  0.61391753  0.70250719  0.39672752     0.28000
C2604       C  0.59303462  0.69757132  0.38064271    -0.12400
C2605       C  0.61397653  0.69590228  0.36446407     0.06100
C2606       C  0.65576049  0.69716947  0.36447990    -0.08400
C2607       C  0.67633642  0.69472124  0.38074242     0.07000
C2608       C  0.65563806  0.69875926  0.39682253    -0.12700
Br2609     Br  0.56601299  0.63743689  0.41607888    -0.04800
Br2610     Br  0.60403698  0.80749398  0.44785810     0.00800
Br2611     Br  0.58533350  0.69602545  0.34233148     0.01300
Br2612     Br  0.68475154  0.70261800  0.41882997    -0.03100
Br2613     Br  0.51197469  0.66973686  0.44995082     0.01400
Br2614     Br  0.62956178  0.78916784  0.40631143    -0.02400
Br2615     Br  0.53585134  0.69539642  0.38048256    -0.03300
Br2616     Br  0.73348351  0.69048499  0.38070381     0.00700
C2617       C  0.46815976  0.88490013  0.35806866     0.02100
C2618       C  0.48910684  0.85015848  0.35996612     0.04900
C2619       C  0.49179295  0.83284676  0.37674429    -0.11100
C2620       C  0.46950222  0.84746112  0.39106479     0.24200
C2621       C  0.44403774  0.87918021  0.38842772    -0.11700
C2622       C  0.44443840  0.89869441  0.37211323     0.05600
C2623       C  0.47585270  0.83195072  0.40917931     0.28000
C2624       C  0.95850559  0.79739100  0.41418466    -0.12400
C2625       C  0.96576922  0.78237740  0.43120389     0.06100
C2626       C  0.49170110  0.80101059  0.44295961    -0.08400
C2627       C  0.50510618  0.83787778  0.43860299     0.07000
C2628       C  0.49875050  0.85254920  0.42146078    -0.12700
Br2629     Br  0.91182738  0.89845506  0.40759449    -0.04800
Br2630     Br  0.51905475  0.82999435  0.34020257     0.00800
Br2631     Br  0.93691090  0.73850837  0.43931481     0.01300
Br2632     Br  0.52261005  0.90026319  0.41460372    -0.03100
Br2633     Br  0.41639625  0.94674298  0.36965061     0.01400
Br2634     Br  0.53100871  0.79357145  0.38077215    -0.02400
Br2635     Br  0.92547952  0.77010525  0.39778907    -0.03300
Br2636     Br  0.52887226  0.86982665  0.45643430     0.00700
C2637       C  0.69082053  0.00703052  0.44319099     0.02100
C2638       C  0.69596941  0.54356055  0.43549549     0.04900
C2639       C  0.67687286  0.55277933  0.41939332    -0.11100
C2640       C  0.65455226  0.02501806  0.41045954     0.24200
C2641       C  0.64894939  0.98894617  0.41841344    -0.11700
C2642       C  0.66413912  0.98149675  0.43536467     0.05600
C2643       C  0.63347453  0.03439318  0.39367788     0.28000
C2644       C  0.59175675  0.03791535  0.39381244    -0.12400
C2645       C  0.57078450  0.03888689  0.37774822     0.06100
C2646       C  0.59114106  0.03366563  0.36157563    -0.08400
C2647       C  0.63294312  0.03362462  0.36133213     0.07000
C2648       C  0.65414299  0.03564172  0.37738203    -0.12700
Br2649     Br  0.62012646  0.94945133  0.40632811    -0.04800
Br2650     Br  0.72718635  0.58182471  0.44725093     0.00800
Br2651     Br  0.51369343  0.54306413  0.37793204     0.01300
Br2652     Br  0.71127058  0.03842286  0.37692102    -0.03100
Br2653     Br  0.64215768  0.94040569  0.44909160     0.01400
Br2654     Br  0.67989736  0.60362589  0.40982329    -0.02400
Br2655     Br  0.56318516  0.53731056  0.41603821    -0.03300
Br2656     Br  0.66102673  0.02590940  0.33931197     0.00700
C2657       C  0.75203046  0.94511990  0.44353671     0.02100
C2658       C  0.77552266  0.96225148  0.43026478     0.04900
C2659       C  0.78369036  0.94275643  0.41429647    -0.11100
C2660       C  0.76738363  0.90644242  0.41118683     0.24200
C2661       C  0.74489654  0.88885746  0.42467615    -0.11700
C2662       C  0.73939068  0.90712418  0.44115513     0.05600
C2663       C  0.77328239  0.88712583  0.39368647     0.28000
C2664       C  0.75285241  0.90070729  0.37856031    -0.12400
C2665       C  0.75704118  0.88205802  0.36215465     0.06100
C2666       C  0.77768269  0.84699702  0.36120862    -0.08400
C2667       C  0.79914251  0.83377831  0.37610794     0.07000
C2668       C  0.79785867  0.85433009  0.39218188    -0.12700
Br2669     Br  0.71979939  0.84053665  0.42029856    -0.04800
Br2670     Br  0.79907278  0.01126090  0.43445802     0.00800
Br2671     Br  0.73014181  0.90152813  0.34137450     0.01300
Br2672     Br  0.82701122  0.83571463  0.41251770    -0.03100
Br2673     Br  0.71645088  0.87895265  0.46061789     0.01400
Br2674     Br  0.81732733  0.96573996  0.39661404    -0.02400
Br2675     Br  0.71417770  0.94099743  0.38086559    -0.03300
Br2676     Br  0.82736059  0.78570289  0.37479234     0.00700
C2677       C  0.72798804  0.54857069  0.55781296     0.02100
C2678       C  0.75418401  0.57743489  0.56312944     0.04900
C2679       C  0.74781106  0.59718395  0.57914785    -0.11100
C2680       C  0.71411298  0.58921063  0.58971202     0.24200
C2681       C  0.68617301  0.56247892  0.58353310    -0.11700
C2682       C  0.69260981  0.54312035  0.56740329     0.05600
C2683       C  0.70741671  0.61064989  0.60662713     0.28000
C2684       C  0.71230220  0.59241427  0.62328108    -0.12400
C2685       C  0.71251886  0.61417608  0.63902202     0.06100
C2686       C  0.70756533  0.65418605  0.63827453    -0.08400
C2687       C  0.69854836  0.67177226  0.62185303     0.07000
C2688       C  0.69892873  0.65026997  0.60608315    -0.12700
Br2689     Br  0.63885914  0.55183297  0.59693699    -0.04800
Br2690     Br  0.79605752  0.59319110  0.54743769     0.00800
Br2691     Br  0.72302216  0.58960072  0.66148678     0.01300
Br2692     Br  0.68938382  0.67557756  0.58357457    -0.03100
Br2693     Br  0.65145440  0.01137976  0.55775866     0.01400
Br2694     Br  0.78550343  0.63546890  0.58637733    -0.02400
Br2695     Br  0.72140775  0.53796528  0.62465729    -0.03300
Br2696     Br  0.68833865  0.72609765  0.62089520     0.00700
C2697       C  0.02027021  0.61863003  0.64282104     0.02100
C2698       C  0.98551494  0.63803176  0.63727976     0.04900
C2699       C  0.98460721  0.65716808  0.62088150    -0.11100
C2700       C  0.01918712  0.65910968  0.61045432     0.24200
C2701       C  0.55439306  0.64174891  0.61658578    -0.11700
C2702       C  0.55501823  0.62136409  0.63268367     0.05600
C2703       C  0.01832511  0.67852360  0.59288727     0.28000
C2704       C  0.00323577  0.65948671  0.57791417    -0.12400
C2705       C  0.00132769  0.67834931  0.56140327     0.06100
C2706       C  0.01367243  0.71663665  0.55992020    -0.08400
C2707       C  0.03293872  0.73387048  0.57439149     0.07000
C2708       C  0.03483918  0.71509994  0.59089525    -0.12700
Br2709     Br  0.60063678  0.64320252  0.60189725    -0.04800
Br2710     Br  0.93842801  0.63636524  0.65179610     0.00800
Br2711     Br  0.48376932  0.65099334  0.54080522     0.01300
Br2712     Br  0.06156232  0.73880645  0.61060724    -0.03100
Br2713     Br  0.60221203  0.59420850  0.64010210     0.01400
Br2714     Br  0.93513180  0.67739499  0.61201356    -0.02400
Br2715     Br  0.48598111  0.60735226  0.58010764    -0.03300
Br2716     Br  0.06038087  0.78127203  0.57117457     0.00700
C2717       C  0.89159724  0.48318618  0.64050995     0.02100
C2718       C  0.86802708  0.51471484  0.63533914     0.04900
C2719       C  0.84675573  0.51350159  0.61942562    -0.11100
C2720       C  0.84734776  0.48016393  0.60910590     0.24200
C2721       C  0.86839629  0.94757109  0.61507009    -0.11700
C2722       C  0.89085264  0.94907172  0.63073487     0.05600
C2723       C  0.82722593  0.47995162  0.59167707     0.28000
C2724       C  0.78896026  0.46474109  0.59005388    -0.12400
C2725       C  0.76899217  0.46706355  0.57371723     0.06100
C2726       C  0.78687586  0.48549558  0.55913495    -0.08400
C2727       C  0.82684705  0.49673349  0.56030330     0.07000
C2728       C  0.84669133  0.49475709  0.57666703    -0.12700
Br2729     Br  0.86767981  0.90217568  0.60111846    -0.04800
Br2730     Br  0.86577868  0.55990896  0.64989711     0.00800
Br2731     Br  0.71887474  0.44207023  0.57098179     0.01300
Br2732     Br  0.90035001  0.51297080  0.57870221    -0.03100
Br2733     Br  0.92174445  0.90551679  0.63853798     0.01400
Br2734     Br  0.81926105  0.55834483  0.61115390    -0.02400
Br2735     Br  0.76412715  0.44086737  0.61026979    -0.03300
Br2736     Br  0.85510858  0.51356334  0.53947237     0.00700
loop_ 
_geom_bond_atom_site_label_1 
_geom_bond_atom_site_label_2 
_geom_bond_distance 
_geom_bond_site_symmetry_2 
_ccdc_geom_bond_type 
O1            C4   1.264       .  A
O1           Cd6   2.556       .  S
C2           O11   1.270       .  A
C2            O7   1.265       .  A
C2          C282   1.513       .  S
O3            C9   1.264       .  A
O3           Cd6   2.545       .  S
C4           O12   1.266       .  A
C4           C79   1.507       .  S
C5           O10   1.263       .  A
C5            O8   1.262       .  A
C5          C156   1.508       .  S
Cd6          O13   2.491       .  S
Cd6          O12   2.500       .  S
Cd6          O11   2.521       .  S
Cd6           O7   2.547       .  S
Cd6          O10   2.579       .  S
Cd6           O8   2.527       .  S
C9           O13   1.270       .  A
C9          C351   1.502       .  S
N14          C19   1.346       .  A
N14          C18   1.345       .  A
N14          H46   1.040       .  S
N15          C22   1.355       .  A
N15        C1391   1.348       .  A
N16          C21   1.363   1_545  A
N16          C20   1.362       .  A
N16          H47   1.039       .  S
N17          C24   1.352       .  A
N17         C709   1.346       .  A
C18          C26   1.388       .  A
C18          C34   1.403       .  A
C19          C35   1.402   1_545  A
C19          C27   1.387       .  A
C20          C28   1.388       .  A
C20        C1405   1.436       .  A
C21          C29   1.387       .  A
C21         C720   1.436       .  A
C22          C34   1.409       .  A
C22        C1398   1.381       .  A
C23        N1383   1.348       .  A
C23          C37   1.420       .  A
C23          C31   1.393       .  A
C24          C35   1.403       .  A
C24         C716   1.381       .  A
C25         N701   1.346       .  A
C25          C33   1.392       .  A
C25          C36   1.414       .  A
C26          C27   1.373       .  A
C26          H38   1.082       .  S
C27          H39   1.083   1_545  S
C28          C29   1.389   1_545  A
C28        H1408   1.082       .  S
C29         H725   1.082       .  S
C30          C31   1.374       .  A
C30        C1390   1.381       .  A
C30          H42   1.082       .  S
C31          H43   1.082       .  S
C32          C33   1.370       .  A
C32         C708   1.381       .  A
C32          H44   1.083       .  S
C33          H45   1.082       .  S
C34         C645   1.484       .  S
C35         C665   1.476       .  S
C36         C326   1.500       .  S
C36         C705   1.436       .  A
C37         C308   1.500       .  S
C37        C1388   1.436       .  A
H40        C1396   1.082       .  S
H41         C713   1.082       .  S
C48          S49   1.800       .  S
C48         S736   1.794       .  S
C48         C740   1.352       .  D
S49          C50   1.798       .  S
C50          C51   1.354       .  D
C50         C605   1.498       .  S
C51         S736   1.793       .  S
C51         C585   1.488       .  S
S52         C732   1.794   1_545  S
S52         C735   1.793   1_545  S
C53          S57   1.792       .  S
C53          C54   1.351   1_545  D
C53         C625   1.492       .  S
C54         S739   1.796       .  S
C54         C674   1.487       .  S
S55         C738   1.796       .  S
S55         C740   1.796       .  S
C56          S57   1.800   1_565  S
C56         S739   1.796       .  S
C56         C732   1.352       .  D
N58          C63   1.364       .  A
N58          C62   1.364   1_655  A
N58          H90   1.041       .  S
N59          C67   1.352       .  A
N59         C750   1.344       .  A
N60          C65   1.346       .  A
N60          C64   1.348       .  A
N60          H91   1.041       .  S
N61          C69   1.354       .  A
N61        C1436   1.351       .  A
C62          C70   1.388       .  A
C62         C762   1.438       .  A
C63          C71   1.388       .  A
C63        C1447   1.438       .  A
C64          C72   1.383       .  A
C64          C81   1.404       .  A
C65          C80   1.407   1_455  A
C65          C73   1.390       .  A
C66         N743   1.344       .  A
C66          C78   1.413       .  A
C66          C74   1.392       .  A
C67          C81   1.403       .  A
C67         C759   1.381       .  A
C68        N1429   1.351       .  A
C68          C76   1.394       .  A
C68          C79   1.423       .  A
C69          C80   1.407       .  A
C69        C1445   1.378       .  A
C70          C71   1.390   1_455  A
C70         H766   1.082       .  S
C71        H1451   1.081       .  S
C72          C73   1.369       .  A
C72          H84   1.081       .  S
C73          H85   1.080       .  S
C74          C75   1.375       .  A
C74          H86   1.082       .  S
C75         C751   1.381       .  A
C75          H87   1.083       .  S
C76          C77   1.371       .  A
C76          H88   1.077       .  S
C77        C1437   1.378       .  A
C77          H89   1.081       .  S
C78         C252   1.500       .  S
C78         C746   1.438       .  A
C79        C1431   1.439       .  A
C80         C565   1.482       .  S
C81         C594   1.486       .  S
H82         C754   1.082       .  S
H83        C1439   1.081       .  S
C92          S96   1.794       .  S
C92        S1461   1.797   1_455  S
C92        C1468   1.347       .  D
S93        C1460   1.796       .  S
S93        C1462   1.787       .  S
C94        S1461   1.787   1_455  S
C94          C95   1.351       .  D
C94         C574   1.485   1_455  S
C95          S96   1.793       .  S
C95         C545   1.488       .  S
C97        S1469   1.793       .  S
C97          C98   1.350       .  D
C97         C654   1.491       .  S
C98          S99   1.785       .  S
C98         C534   1.481       .  S
S99         C100   1.794       .  S
C100       S1469   1.798       .  S
C100       C1460   1.347       .  D
S101       C1465   1.793       .  S
S101       C1468   1.799       .  S
N102        C107   1.348       .  A
N102        C106   1.349       .  A
N102        H134   1.042       .  S
N103        C110   1.352       .  A
N103        C111   1.347       .  A
N104        C109   1.364       .  A
N104        C108   1.366       .  A
N104        H135   1.041       .  S
N105        C112   1.358       .  A
N105        C113   1.351       .  A
C106        C114   1.387       .  A
C106        C122   1.406       .  A
C107        C123   1.408       .  A
C107        C115   1.388       .  A
C108        C116   1.387       .  A
C108        C125   1.438       .  A
C109        C124   1.439       .  A
C109        C117   1.388       .  A
C110        C122   1.405       .  A
C110        C118   1.382       .  A
C111        C125   1.415       .  A
C111        C119   1.392       .  A
C112        C120   1.382       .  A
C112        C123   1.415       .  A
C113        C121   1.392       .  A
C113        C124   1.425       .  A
C114        C115   1.373       .  A
C114        H126   1.082       .  S
C115        H127   1.082       .  S
C116        C117   1.388       .  A
C116        H128   1.081       .  S
C117        H129   1.081       .  S
C118        C119   1.374       .  A
C118        H130   1.083       .  S
C119        H131   1.083       .  S
C120        C121   1.378       .  A
C120        H132   1.081       .  S
C121        H133   1.082       .  S
C122        C525   1.483       .  S
C123        C634   1.497       .  S
C124        C313   1.511       .  S
C125        C319   1.508       .  S
N136        C141   1.365       .  A
N136        C140   1.364       .  A
N136        H168   1.040       .  S
N137        C144   1.351       .  A
N137        C145   1.356       .  A
N138        C143   1.349       .  A
N138        C142   1.349       .  A
N138        H169   1.042       .  S
N139        C146   1.345       .  A
N139        C147   1.352       .  A
C140        C148   1.388       .  A
C140        C156   1.439       .  A
C141        C157   1.440       .  A
C141        C149   1.388       .  A
C142        C150   1.389       .  A
C142        C159   1.407       .  A
C143        C158   1.406       .  A
C143        C151   1.382       .  A
C144        C156   1.426       .  A
C144        C152   1.393       .  A
C145        C159   1.411       .  A
C145        C153   1.378       .  A
C146        C154   1.392       .  A
C146        C157   1.415       .  A
C147        C155   1.381       .  A
C147        C158   1.404       .  A
C148        C149   1.388       .  A
C148        H160   1.082       .  S
C149        H161   1.081       .  S
C150        C151   1.368       .  A
C150        H162   1.081       .  S
C151        H163   1.078       .  S
C152        C153   1.375       .  A
C152        H164   1.078       .  S
C153        H165   1.081       .  S
C154        C155   1.377       .  A
C154        H166   1.082       .  S
C155        H167   1.083       .  S
C157        C249   1.504       .  S
C158        C554   1.491       .  S
C159        C614   1.491       .  S
C170        S855   1.799   1_545  S
C170       S1542   1.795       .  S
C170       C2230   1.350   1_556  D
S171        C854   1.799       .  S
S171        C856   1.795       .  S
C172        S855   1.795       .  S
C172        C173   1.351   1_565  D
C172        C474   1.491       .  S
C173       S1542   1.791       .  S
C173        C454   1.488       .  S
S174       C1538   1.795   1_455  S
S174       C1541   1.791   1_455  S
C175        S863   1.790       .  S
C175        C176   1.351   1_455  D
C175        C494   1.492       .  S
C176       S1545   1.793       .  S
C176        C505   1.485       .  S
S177       C1544   1.793       .  S
S177       C1546   1.797       .  S
C178       S1545   1.797       .  S
C178        S863   1.800   1_655  S
C178       C2222   1.350   1_554  D
S179        C859   1.790       .  S
S179        C862   1.800   1_455  S
N180        C185   1.352   1_545  A
N180        C184   1.348       .  A
N180        H212   1.039       .  S
N181        C188   1.354       .  A
N181        C189   1.353       .  A
N182        C187   1.360   1_545  A
N182        C186   1.362       .  A
N182        H213   1.038       .  S
N183        C874   1.356       .  A
N183        C875   1.349       .  A
C184        C192   1.387       .  A
C184        C200   1.409       .  A
C185        C201   1.412       .  A
C185        C193   1.388       .  A
C186        C194   1.387       .  A
C186        C203   1.434       .  A
C187        C886   1.432       .  A
C187        C879   1.387       .  A
C188        C200   1.410       .  A
C188        C196   1.382       .  A
C189        C203   1.422       .  A
C189        C197   1.391       .  A
C190        N867   1.356       .  A
C190        C198   1.380       .  A
C190        C885   1.408       .  A
C191        N867   1.349       .  A
C191        C199   1.394       .  A
C191        C202   1.421       .  A
C192        C193   1.365   1_545  A
C192        H204   1.082       .  S
C193        H205   1.078       .  S
C194        C879   1.386   1_545  A
C194        H206   1.082       .  S
C195        C871   1.387       .  A
C195        C878   1.386       .  A
C195        H207   1.082       .  S
C196        C197   1.372       .  A
C196        H208   1.083       .  S
C197        H209   1.082       .  S
C198        C199   1.368       .  A
C198        H210   1.082       .  S
C199        H211   1.081       .  S
C200        C434   1.483       .  S
C201        C465   1.494       .  S
C201        C874   1.408       .  A
C202        C321   1.493       .  S
C202        C871   1.432       .  A
C203        C306   1.504       .  S
N214        C219   1.351       .  A
N214        C218   1.351       .  A
N214        H246   1.035       .  S
N215        C222   1.356       .  A
N215        C223   1.352       .  A
N216        C221   1.362       .  A
N216        C220   1.363       .  A
N216        H247   1.034       .  S
N217        C224   1.356       .  A
N217        C225   1.351       .  A
C218        C226   1.384       .  A
C218        C234   1.408       .  A
C219        C235   1.415       .  A
C219        C227   1.389       .  A
C220        C228   1.388       .  A
C220        C237   1.436       .  A
C221        C236   1.433       .  A
C221        C229   1.386       .  A
C222        C234   1.410       .  A
C222       C1598   1.380       .  A
C223        C237   1.424       .  A
C223       C1599   1.393       .  A
C224        C232   1.381       .  A
C224        C235   1.410       .  A
C225        C233   1.393       .  A
C225        C236   1.422       .  A
C226        C227   1.361       .  A
C226        H238   1.082       .  S
C227        H239   1.077       .  S
C228        C229   1.386       .  A
C228        H240   1.082       .  S
C229        H241   1.082       .  S
C230        C231   1.374       .  A
C230       C1590   1.380       .  A
C230        H242   1.082       .  S
C231       C1591   1.393       .  A
C231        H243   1.082       .  S
C232        C233   1.367       .  A
C232        H244   1.082       .  S
C233        H245   1.081       .  S
C234        C445   1.491       .  S
C235        C414   1.492       .  S
C236        C322   1.497       .  S
C237       C1677   1.504       .  S
O248        C251   1.264       .  A
O248       Cd253   2.532       .  S
C249        O258   1.268       .  A
C249        O254   1.264       .  A
O250        C256   1.263       .  A
O250       Cd253   2.536       .  S
C251        O259   1.265       .  A
C251        C281   1.493       .  S
C252        O257   1.269       .  A
C252        O255   1.265       .  A
Cd253       O260   2.478       .  S
Cd253       O259   2.488       .  S
Cd253       O258   2.479       .  S
Cd253       O254   2.556       .  S
Cd253       O257   2.458       .  S
Cd253       O255   2.555       .  S
C256        O260   1.266       .  A
C256        C352   1.497       .  S
N261        C266   1.365       .  A
N261        C949   1.361       .  A
N261        H293   1.041       .  S
N262        C269   1.347       .  A
N262        C270   1.354       .  A
N263        C268   1.347       .  A
N263        C267   1.350       .  A
N263        H294   1.042       .  S
N264        C271   1.349       .  A
N264        C272   1.353       .  A
C265        N945   1.361   1_545  A
C265        C273   1.386   1_545  A
C265        C281   1.433       .  A
C266        C282   1.439       .  A
C266        C274   1.389       .  A
C267        C275   1.386       .  A
C267        C284   1.407       .  A
C268        C283   1.410       .  A
C268        C276   1.389       .  A
C269        C281   1.420       .  A
C269        C277   1.394       .  A
C270        C278   1.380       .  A
C270        C968   1.407       .  A
C271        C279   1.389       .  A
C271        C282   1.418       .  A
C272        C280   1.385       .  A
C272        C283   1.413       .  A
C273        C958   1.386       .  A
C273        H285   1.082   1_565  S
C274        C957   1.386       .  A
C274        H286   1.081       .  S
C275        C276   1.374       .  A
C275        H287   1.082       .  S
C276        H288   1.083       .  S
C277        C278   1.373       .  A
C277        H289   1.078       .  S
C278        H290   1.083       .  S
C279        C280   1.380       .  A
C279        H291   1.082       .  S
C280        H292   1.083       .  S
C283        C394   1.494       .  S
C284        C485   1.490       .  S
C284        C954   1.407       .  A
C295        S296   1.795       .  S
C295        S299   1.798       .  S
C295        C303   1.347   1_556  D
S296        C297   1.790       .  S
C297        C298   1.349       .  D
C297        C425   1.483       .  S
C298        S299   1.789       .  S
C298        C405   1.486       .  S
C300        S304   1.800       .  S
C300        C301   1.369       .  D
C300        C385   1.520       .  S
C301        S302   1.799       .  S
C301        C365   1.492       .  S
S302        C303   1.784       .  S
C303        S304   1.783       .  S
O305        C308   1.263       .  A
O305       Cd310   2.572       .  S
C306        O315   1.264       .  A
C306        O311   1.262       .  A
O307        C313   1.265       .  A
O307       Cd310   2.484       .  S
C308        O316   1.264       .  A
C309        O314   1.267       .  A
C309        O312   1.269       .  A
C309       C1605   1.504       .  S
Cd310       O317   2.584       .  S
Cd310       O316   2.474       .  S
Cd310       O315   2.517       .  S
Cd310       O311   2.561       .  S
Cd310       O314   2.542       .  S
Cd310       O312   2.484       .  S
C313        O317   1.267       .  A
O318        C321   1.265       .  A
O318       Cd323   2.524       .  S
C319        O328   1.266       .  A
C319        O324   1.268       .  A
O320        C326   1.262       .  A
O320       Cd323   2.551       .  S
C321        O329   1.268       .  A
C322        O327   1.262       .  A
C322        O325   1.263       .  A
Cd323       O330   2.471       .  S
Cd323       O329   2.449       .  S
Cd323       O328   2.576       .  S
Cd323       O324   2.464       .  S
Cd323       O327   2.553       .  S
Cd323       O325   2.488       .  S
C326        O330   1.268       .  A
N331        C336   1.360       .  A
N331        C335   1.364   1_455  A
N331        H363   1.037       .  S
N332        C340   1.352       .  A
N332       C1707   1.349       .  A
N333        C338   1.352       .  A
N333        C337   1.350       .  A
N333        H364   1.039       .  S
N334        C341   1.351       .  A
N334        C342   1.357       .  A
C335        C343   1.387       .  A
C335       C1719   1.435       .  A
C336        C352   1.433       .  A
C336        C344   1.388       .  A
C337        C345   1.386       .  A
C337        C354   1.410   1_455  A
C338        C353   1.414       .  A
C338        C346   1.389       .  A
C339       N1700   1.349       .  A
C339        C351   1.417       .  A
C339        C347   1.391       .  A
C340        C354   1.405       .  A
C340       C1716   1.382       .  A
C341        C349   1.392       .  A
C341        C352   1.423       .  A
C342        C350   1.381       .  A
C342        C353   1.412       .  A
C343        C344   1.387   1_655  A
C343       H1723   1.082       .  S
C344        H356   1.082       .  S
C345        C346   1.367       .  A
C345        H357   1.082       .  S
C346        H358   1.079       .  S
C347        C348   1.370       .  A
C347        H359   1.082       .  S
C348       C1708   1.382       .  A
C348        H360   1.083       .  S
C349        C350   1.369       .  A
C349        H361   1.081       .  S
C350        H362   1.082       .  S
C351       C1703   1.435       .  A
C353        C374   1.495       .  S
C354        C514   1.483       .  S
H355       C1711   1.082       .  S
C365        C366   1.415       .  A
C365        C370   1.408       .  A
C366        C367   1.409       .  A
C366       Br378   1.935       .  S
C367        C368   1.408       .  A
C367       Br382   1.922       .  S
C368        C371   1.493       .  S
C368        C369   1.415       .  A
C369        C370   1.411       .  A
C369       Br377   1.930       .  S
C370       Br381   1.928       .  S
C371        C372   1.410       .  A
C371        C376   1.410       .  A
C372        C373   1.409       .  A
C372       Br383   1.924       .  S
C373        C374   1.409       .  A
C373       Br379   1.924       .  S
C374        C375   1.410       .  A
C375        C376   1.406       .  A
C375       Br384   1.929       .  S
C376       Br380   1.921       .  S
C385        C386   1.436       .  A
C385        C390   1.403       .  A
C386        C387   1.419       .  A
C386       Br398   1.930       .  S
C387        C388   1.414       .  A
C387       Br402   1.932       .  S
C388        C391   1.494       .  S
C388        C389   1.398       .  A
C389        C390   1.389       .  A
C389       Br397   1.918       .  S
C390       Br401   1.916       .  S
C391        C392   1.421       .  A
C391        C396   1.411       .  A
C392        C393   1.406       .  A
C392       Br403   1.935       .  S
C393        C394   1.410       .  A
C393       Br399   1.933       .  S
C394        C395   1.415       .  A
C395        C396   1.405       .  A
C395       Br404   1.932       .  S
C396       Br400   1.932       .  S
C405        C406   1.407       .  A
C405        C410   1.410       .  A
C406        C407   1.406       .  A
C406       Br418   1.925       .  S
C407        C408   1.412       .  A
C407       Br422   1.928       .  S
C408        C411   1.486       .  S
C408        C409   1.408       .  A
C409        C410   1.406       .  A
C409       Br417   1.923       .  S
C410       Br421   1.930       .  S
C411        C412   1.412       .  A
C411        C416   1.410       .  A
C412        C413   1.405       .  A
C412       Br423   1.929       .  S
C413        C414   1.406       .  A
C413       Br419   1.926       .  S
C414        C415   1.411       .  A
C415        C416   1.407       .  A
C415       Br424   1.929       .  S
C416       Br420   1.926       .  S
C425        C426   1.408       .  A
C425        C430   1.411       .  A
C426        C427   1.404       .  A
C426       Br438   1.923       .  S
C427        C428   1.407       .  A
C427       Br442   1.929       .  S
C428        C431   1.479       .  S
C428        C429   1.407       .  A
C429        C430   1.405       .  A
C429       Br437   1.926       .  S
C430       Br441   1.931       .  S
C431        C432   1.407       .  A
C431        C436   1.407       .  A
C432        C433   1.404       .  A
C432       Br443   1.924       .  S
C433        C434   1.407       .  A
C433       Br439   1.926       .  S
C434        C435   1.410       .  A
C435        C436   1.403       .  A
C435       Br444   1.931       .  S
C436       Br440   1.926       .  S
C445        C446   1.411       .  A
C445        C450   1.410       .  A
C446        C447   1.405       .  A
C446       Br458   1.930       .  S
C447        C448   1.408       .  A
C447       Br462   1.929       .  S
C448        C451   1.486       .  S
C448        C449   1.408       .  A
C449        C450   1.409       .  A
C449      Br1825   1.923       .  S
C450      Br1829   1.926       .  S
C451        C452   1.408       .  A
C451        C456   1.408       .  A
C452        C453   1.407       .  A
C452      Br1831   1.923       .  S
C453        C454   1.411       .  A
C453      Br1827   1.931       .  S
C454        C455   1.409       .  A
C455        C456   1.406       .  A
C455      Br1148   1.923   1_545  S
C456       Br460   1.928       .  S
Br457      C1817   1.923       .  S
Br459      C1821   1.931       .  S
Br461      C1818   1.926       .  S
Br463      C1820   1.923       .  S
Br464      C1139   1.923       .  S
C465        C466   1.411       .  A
C465       C1154   1.406       .  A
C466        C467   1.408       .  A
C466       Br478   1.928   1_565  S
C467        C468   1.408       .  A
C467       Br482   1.921   1_565  S
C468        C471   1.490       .  S
C468       C1153   1.410       .  A
C469        C470   1.408       .  A
C469       C1152   1.410       .  A
C469       Br477   1.923       .  S
C470       C1149   1.406       .  A
C470       Br481   1.923       .  S
C471        C472   1.408       .  A
C471        C476   1.411       .  A
C472        C473   1.408       .  A
C472       Br483   1.920       .  S
C473        C474   1.411       .  A
C473       Br479   1.930       .  S
C474        C475   1.409   1_565  A
C475        C476   1.407   1_545  A
C475       Br484   1.925       .  S
C476       Br480   1.929   1_565  S
C485        C490   1.407       .  A
C485       C1170   1.407       .  A
C486        C487   1.406       .  A
C486       C1169   1.407       .  A
C486       Br498   1.926       .  S
C487       C1172   1.410       .  A
C487       Br502   1.928       .  S
C488        C491   1.494       .  S
C488        C489   1.415       .  A
C488       C1171   1.410       .  A
C489        C490   1.410       .  A
C489       Br497   1.926       .  S
C490       Br501   1.928       .  S
C491        C492   1.412       .  A
C491       C1180   1.417       .  A
C492        C493   1.410       .  A
C492       Br503   1.925       .  S
C493        C494   1.410       .  A
C493       Br499   1.929   1_455  S
C494       C1179   1.408       .  A
C495        C496   1.407   1_565  A
C495       C1178   1.408   1_565  A
C495       Br504   1.926       .  S
C496       C1175   1.417       .  A
C496       Br500   1.939   1_545  S
C505        C506   1.409       .  A
C505        C510   1.406       .  A
C506        C507   1.407       .  A
C506      Br1886   1.928   1_655  S
C507        C508   1.413       .  A
C507      Br1890   1.931   1_655  S
C508        C511   1.488       .  S
C508        C509   1.412       .  A
C509        C510   1.404       .  A
C509       Br517   1.929       .  S
C510      Br1205   1.925       .  S
C511        C516   1.410   1_655  A
C511       C1880   1.408       .  A
C512        C513   1.406       .  A
C512       C1879   1.408       .  A
C512       Br523   1.912       .  S
C513       C1882   1.406       .  A
C513       Br519   1.927       .  S
C514        C515   1.406   1_655  A
C514       C1881   1.406       .  A
C515        C516   1.402       .  A
C515       Br524   1.931       .  S
C516       Br520   1.917       .  S
Br518      C1874   1.928       .  S
Br521      C1194   1.925   1_545  S
Br522      C1875   1.931       .  S
C525        C526   1.407       .  A
C525        C530   1.407       .  A
C526        C527   1.405       .  A
C526       Br538   1.929       .  S
C527        C528   1.413       .  A
C527       Br542   1.935       .  S
C528        C531   1.487       .  S
C528        C529   1.413       .  A
C529        C530   1.406       .  A
C529       Br537   1.924       .  S
C530       Br541   1.930       .  S
C531        C532   1.414       .  A
C531        C536   1.414       .  A
C532        C533   1.404       .  A
C532       Br543   1.934       .  S
C533        C534   1.406       .  A
C533       Br539   1.926       .  S
C534        C535   1.407       .  A
C535        C536   1.405       .  A
C535       Br544   1.933       .  S
C536       Br540   1.924       .  S
C545        C546   1.406       .  A
C545        C550   1.412       .  A
C546        C547   1.401       .  A
C546       Br558   1.925       .  S
C547        C548   1.412       .  A
C547       Br562   1.926       .  S
C548        C551   1.491       .  S
C548        C549   1.409       .  A
C549        C550   1.410       .  A
C549       Br557   1.922       .  S
C550       Br561   1.928       .  S
C551        C552   1.415       .  A
C551        C556   1.411       .  A
C552        C553   1.410       .  A
C552       Br563   1.930       .  S
C553        C554   1.410       .  A
C553       Br559   1.928       .  S
C554        C555   1.411       .  A
C555        C556   1.405       .  A
C555       Br564   1.931       .  S
C556       Br560   1.934       .  S
C565        C566   1.406       .  A
C565        C570   1.409       .  A
C566        C567   1.403       .  A
C566       Br578   1.930   1_655  S
C567        C568   1.409       .  A
C567       Br582   1.920   1_655  S
C568        C571   1.483       .  S
C568        C569   1.410       .  A
C569        C570   1.405       .  A
C569      Br1945   1.929       .  S
C570       Br581   1.929       .  S
C571        C576   1.411       .  A
C571       C1940   1.408       .  A
C572        C573   1.406       .  A
C572       C1939   1.408       .  A
C572       Br583   1.927       .  S
C573       C1942   1.408       .  A
C573       Br579   1.925       .  S
C574        C575   1.410   1_655  A
C574       C1941   1.408       .  A
C575        C576   1.405   1_455  A
C575       Br584   1.931       .  S
C576       Br580   1.931   1_655  S
Br577      C1937   1.929       .  S
C585        C590   1.406       .  A
C585       C1270   1.414       .  A
C586        C587   1.410       .  A
C586       C1269   1.414       .  A
C586       Br598   1.930       .  S
C587       C1272   1.408       .  A
C587       Br602   1.922       .  S
C588        C591   1.486       .  S
C588        C589   1.411       .  A
C588       C1271   1.408       .  A
C589        C590   1.400       .  A
C589       Br597   1.930       .  S
C590       Br601   1.924       .  S
C591        C592   1.411       .  A
C591        C596   1.413       .  A
C592        C593   1.403       .  A
C592      Br1287   1.933       .  S
C593        C594   1.410       .  A
C593      Br1283   1.930       .  S
C594        C595   1.409       .  A
C595        C596   1.408       .  A
C595       Br604   1.928       .  S
C596       Br600   1.930       .  S
Br599      C1277   1.930       .  S
Br603      C1276   1.933       .  S
C605        C606   1.412       .  A
C605        C610   1.413       .  A
C606        C607   1.411       .  A
C606       Br618   1.925       .  S
C607        C608   1.411       .  A
C607       Br622   1.929       .  S
C608        C611   1.496       .  S
C608        C609   1.412       .  A
C609        C610   1.410       .  A
C609       Br617   1.929       .  S
C610       Br621   1.931       .  S
C611        C612   1.411       .  A
C611        C616   1.413       .  A
C612        C613   1.406       .  A
C612       Br623   1.918       .  S
C613        C614   1.406       .  A
C613       Br619   1.929       .  S
C614        C615   1.411       .  A
C615        C616   1.411       .  A
C615       Br624   1.927       .  S
C616       Br620   1.929       .  S
C625        C626   1.408       .  A
C625        C630   1.409       .  A
C626        C627   1.408       .  A
C626       Br638   1.925       .  S
C627        C628   1.417       .  A
C627       Br642   1.937       .  S
C628        C631   1.497       .  S
C628        C629   1.415       .  A
C629        C630   1.409       .  A
C629       Br637   1.927       .  S
C630      Br1325   1.932       .  S
C631        C632   1.416       .  A
C631        C636   1.413       .  A
C632        C633   1.412       .  A
C632       Br643   1.929       .  S
C633        C634   1.410       .  A
C633       Br639   1.929       .  S
C634        C635   1.413       .  A
C635        C636   1.409       .  A
C635       Br644   1.930       .  S
C636       Br640   1.937       .  S
Br641      C1314   1.932       .  S
C645        C646   1.411       .  A
C645       C2018   1.405       .  A
C646        C647   1.404       .  A
C646       Br658   1.929       .  S
C647        C648   1.408       .  A
C647       Br662   1.924       .  S
C648        C651   1.486       .  S
C648       C2017   1.407       .  A
C649        C650   1.406       .  A
C649       C2016   1.408       .  A
C649       Br657   1.913       .  S
C650       C2013   1.405       .  A
C650       Br661   1.927       .  S
C651        C652   1.410       .  A
C651        C656   1.409       .  A
C652        C653   1.408       .  A
C652      Br2031   1.931       .  S
C653        C654   1.412       .  A
C653      Br2027   1.930       .  S
C654        C655   1.410       .  A
C655        C656   1.406       .  A
C655       Br664   1.923       .  S
C656       Br660   1.932       .  S
Br659      C2021   1.930   1_655  S
Br663      C2020   1.931   1_655  S
C665        C666   1.407   1_565  A
C665       C1354   1.404       .  A
C666        C667   1.399       .  A
C666       Br678   1.929       .  S
C667        C668   1.404   1_545  A
C667       Br682   1.917       .  S
C668        C671   1.479       .  S
C668       C1353   1.406       .  A
C669        C670   1.405       .  A
C669       C1352   1.406       .  A
C669       Br677   1.909       .  S
C670       C1349   1.404       .  A
C670       Br681   1.927       .  S
C671        C672   1.407       .  A
C671        C676   1.408       .  A
C672        C673   1.406       .  A
C672       Br683   1.931       .  S
C673        C674   1.411       .  A
C673       Br679   1.923       .  S
C674        C675   1.411       .  A
C675        C676   1.405       .  A
C675       Br684   1.930   1_565  S
C676       Br680   1.931   1_565  S
O685        C688   1.264       .  A
O685       Cd690   2.556       .  S
C686        O695   1.270       .  A
C686        O691   1.265       .  A
C686        C966   1.513       .  S
O687        C693   1.264       .  A
O687       Cd690   2.545       .  S
C688        O696   1.266       .  A
C688        C763   1.507       .  S
C689        O694   1.263       .  A
C689        O692   1.262       .  A
C689        C840   1.508       .  S
Cd690       O697   2.490       .  S
Cd690       O696   2.501       .  S
Cd690       O695   2.521       .  S
Cd690       O691   2.547       .  S
Cd690       O694   2.579       .  S
Cd690       O692   2.527       .  S
C693        O697   1.270       .  A
C693       C1035   1.502       .  S
N698        C703   1.346       .  A
N698        C702   1.345       .  A
N698        H730   1.040       .  S
N699        C706   1.355       .  A
N699       C2075   1.348       .  A
N700        C705   1.363       .  A
N700        C704   1.362       .  A
N700        H731   1.039       .  S
N701        C708   1.352       .  A
C702        C710   1.388       .  A
C702        C718   1.404       .  A
C703        C719   1.403       .  A
C703        C711   1.387       .  A
C704        C712   1.388       .  A
C704       C2089   1.436       .  A
C705        C713   1.387       .  A
C706        C718   1.409       .  A
C706       C2082   1.381       .  A
C707       N2067   1.348       .  A
C707        C721   1.420       .  A
C707        C715   1.393       .  A
C708        C719   1.403       .  A
C709        C717   1.392       .  A
C709        C720   1.414       .  A
C710        C711   1.373       .  A
C710        H722   1.082       .  S
C711        H723   1.083       .  S
C712        C713   1.389       .  A
C712       H2092   1.082       .  S
C714       C2074   1.381       .  A
C714        C715   1.375       .  A
C714        H726   1.082       .  S
C715        H727   1.082       .  S
C716        C717   1.370       .  A
C716        H728   1.083       .  S
C717        H729   1.082       .  S
C718       C1329   1.484       .  S
C719       C1349   1.476       .  S
C720       C1010   1.500       .  S
C721        C992   1.500       .  S
C721       C2072   1.436       .  A
H724       C2080   1.082       .  S
C732        S733   1.800       .  S
S733        C734   1.798       .  S
C734        C735   1.354       .  D
C734       C1289   1.498       .  S
C735       C1269   1.488   1_565  S
C737        S741   1.792       .  S
C737        C738   1.351       .  D
C737       C1309   1.492       .  S
C738       C1358   1.487       .  S
C740        S741   1.800       .  S
N742        C747   1.364       .  A
N742        C746   1.364   1_665  A
N742        H774   1.041       .  S
N743        C751   1.352       .  A
N744        C749   1.346       .  A
N744        C748   1.348       .  A
N744        H775   1.042       .  S
N745       C2120   1.351       .  A
N745        C753   1.354       .  A
C746        C754   1.388       .  A
C747       C2131   1.438       .  A
C747        C755   1.388       .  A
C748        C756   1.383       .  A
C748        C765   1.404   1_565  A
C749        C764   1.407   1_455  A
C749        C757   1.390       .  A
C750        C762   1.414       .  A
C750        C758   1.392       .  A
C751        C765   1.403       .  A
C752       N2113   1.351       .  A
C752        C760   1.394       .  A
C752        C763   1.423       .  A
C753       C2129   1.378       .  A
C753        C764   1.407       .  A
C754        C755   1.390   1_445  A
C755       H2135   1.081       .  S
C756        C757   1.369       .  A
C756        H768   1.081       .  S
C757        H769   1.080       .  S
C758        C759   1.375       .  A
C758        H770   1.082       .  S
C759        H771   1.083       .  S
C760        C761   1.372       .  A
C760        H772   1.077       .  S
C761       C2121   1.378       .  A
C761        H773   1.081       .  S
C762        C936   1.500       .  S
C763       C2115   1.439       .  A
C764       C1249   1.482       .  S
C765       C1278   1.486       .  S
H767       C2123   1.081       .  S
C776       S2145   1.797   1_455  S
C776        S780   1.795       .  S
C776       C2152   1.348       .  D
S777       C2144   1.796       .  S
S777       C2146   1.787       .  S
C778       S2145   1.787   1_455  S
C778        C779   1.351       .  D
C778       C1258   1.485   1_455  S
C779        S780   1.793       .  S
C779       C1229   1.488       .  S
C781       S2153   1.793       .  S
C781        C782   1.350       .  D
C781       C1338   1.491       .  S
C782        S783   1.786       .  S
C782       C1218   1.481       .  S
S783        C784   1.794       .  S
C784       S2153   1.799       .  S
C784       C2144   1.347       .  D
S785       C2149   1.794       .  S
S785       C2152   1.799       .  S
N786        C791   1.348       .  A
N786        C790   1.349       .  A
N786        H818   1.042       .  S
N787        C794   1.352       .  A
N787        C795   1.347       .  A
N788        C793   1.364       .  A
N788        C792   1.366       .  A
N788        H819   1.041       .  S
N789        C796   1.358       .  A
N789        C797   1.351       .  A
C790        C798   1.387       .  A
C790        C806   1.406       .  A
C791        C807   1.408       .  A
C791        C799   1.388       .  A
C792        C800   1.387       .  A
C792        C809   1.438       .  A
C793        C808   1.439       .  A
C793        C801   1.388       .  A
C794        C806   1.405       .  A
C794        C802   1.382       .  A
C795        C809   1.415       .  A
C795        C803   1.392       .  A
C796        C804   1.382       .  A
C796        C807   1.415       .  A
C797        C805   1.392       .  A
C797        C808   1.425       .  A
C798        C799   1.373       .  A
C798        H810   1.082       .  S
C799        H811   1.082       .  S
C800        C801   1.388       .  A
C800        H812   1.081       .  S
C801        H813   1.081       .  S
C802        C803   1.374       .  A
C802        H814   1.083       .  S
C803        H815   1.083       .  S
C804        C805   1.378       .  A
C804        H816   1.081       .  S
C805        H817   1.082       .  S
C806       C1209   1.483       .  S
C807       C1318   1.497       .  S
C808        C997   1.511       .  S
C809       C1003   1.508       .  S
N820        C825   1.365       .  A
N820        C824   1.364       .  A
N820        H852   1.040       .  S
N821        C828   1.351       .  A
N821        C829   1.356       .  A
N822        C827   1.349       .  A
N822        C826   1.349       .  A
N822        H853   1.042       .  S
N823        C830   1.345       .  A
N823        C831   1.352       .  A
C824        C832   1.388       .  A
C824        C840   1.439       .  A
C825        C841   1.440       .  A
C825        C833   1.388       .  A
C826        C834   1.389       .  A
C826        C843   1.407       .  A
C827        C842   1.406       .  A
C827        C835   1.382       .  A
C828        C840   1.426       .  A
C828        C836   1.393       .  A
C829        C843   1.411       .  A
C829        C837   1.378       .  A
C830        C838   1.392       .  A
C830        C841   1.415       .  A
C831        C839   1.381       .  A
C831        C842   1.404       .  A
C832        C833   1.388       .  A
C832        H844   1.082       .  S
C833        H845   1.081       .  S
C834        C835   1.368       .  A
C834        H846   1.081       .  S
C835        H847   1.078       .  S
C836        C837   1.375       .  A
C836        H848   1.078       .  S
C837        H849   1.081       .  S
C838        C839   1.377       .  A
C838        H850   1.082       .  S
C839        H851   1.083       .  S
C841        C933   1.504       .  S
C842       C1238   1.491       .  S
C843       C1298   1.491       .  S
C854       S2226   1.795       .  S
C854       C1546   1.350   1_556  D
C856        C857   1.351       .  D
C856       C1158   1.491       .  S
C857       S2226   1.791       .  S
C857       C1138   1.488       .  S
S858       C2222   1.795   1_455  S
S858       C2225   1.791   1_455  S
C859        C860   1.351   1_445  D
C859       C1178   1.492       .  S
C860       S2229   1.793       .  S
C860       C1189   1.485       .  S
S861       C2228   1.793       .  S
S861       C2230   1.797   1_565  S
C862       S2229   1.797   1_545  S
C862       C1538   1.350   1_554  D
N864        C869   1.352       .  A
N864        C868   1.348       .  A
N864        H896   1.039       .  S
N865        C872   1.354       .  A
N865        C873   1.353       .  A
N866        C871   1.360       .  A
N866        C870   1.362       .  A
N866        H897   1.038       .  S
C868        C876   1.387       .  A
C868        C884   1.409       .  A
C869        C885   1.412       .  A
C869        C877   1.388       .  A
C870        C878   1.387       .  A
C870        C887   1.434       .  A
C872        C884   1.410       .  A
C872        C880   1.382       .  A
C873        C887   1.422       .  A
C873        C881   1.391       .  A
C874        C882   1.380       .  A
C875        C883   1.393       .  A
C875        C886   1.421       .  A
C876        C877   1.365       .  A
C876        H888   1.082       .  S
C877        H889   1.078       .  S
C878        H890   1.082       .  S
C879        H891   1.082       .  S
C880        C881   1.372       .  A
C880        H892   1.083       .  S
C881        H893   1.082       .  S
C882        C883   1.368       .  A
C882        H894   1.082       .  S
C883        H895   1.081       .  S
C884       C1118   1.483       .  S
C885       C1149   1.494       .  S
C886       C1005   1.493       .  S
C887        C990   1.504       .  S
N898        C903   1.351       .  A
N898        C902   1.351       .  A
N898        H930   1.035       .  S
N899        C906   1.356       .  A
N899        C907   1.351       .  A
N900        C905   1.362       .  A
N900        C904   1.363       .  A
N900        H931   1.034       .  S
N901        C908   1.356       .  A
N901        C909   1.351       .  A
C902        C910   1.385       .  A
C902        C918   1.408       .  A
C903        C919   1.415       .  A
C903        C911   1.389       .  A
C904        C912   1.388       .  A
C904        C921   1.436       .  A
C905        C920   1.433       .  A
C905        C913   1.386       .  A
C906        C918   1.410       .  A
C906       C2282   1.380       .  A
C907        C921   1.424       .  A
C907       C2283   1.393       .  A
C908        C916   1.381       .  A
C908        C919   1.410       .  A
C909        C917   1.393       .  A
C909        C920   1.422       .  A
C910        C911   1.361       .  A
C910        H922   1.082       .  S
C911        H923   1.077       .  S
C912        C913   1.386       .  A
C912        H924   1.082       .  S
C913        H925   1.082       .  S
C914       C2274   1.380       .  A
C914        C915   1.374       .  A
C914        H926   1.082       .  S
C915       C2275   1.392       .  A
C915        H927   1.082       .  S
C916        C917   1.367       .  A
C916        H928   1.082       .  S
C917        H929   1.081       .  S
C918       C1129   1.491       .  S
C919       C1098   1.492       .  S
C920       C1006   1.497       .  S
C921       C2361   1.504       .  S
O932        C935   1.264       .  A
O932       Cd937   2.532       .  S
C933        O942   1.268       .  A
C933        O938   1.264       .  A
O934        C940   1.263       .  A
O934       Cd937   2.537       .  S
C935        O943   1.265       .  A
C935        C965   1.493       .  S
C936        O941   1.269       .  A
C936        O939   1.265       .  A
Cd937       O944   2.479       .  S
Cd937       O943   2.488       .  S
Cd937       O942   2.479       .  S
Cd937       O938   2.556       .  S
Cd937       O941   2.458       .  S
Cd937       O939   2.555       .  S
C940        O944   1.266       .  A
C940       C1036   1.497       .  S
N945        C950   1.365       .  A
N945        H977   1.041   1_565  S
N946        C953   1.347       .  A
N946        C954   1.354       .  A
N947        C952   1.347       .  A
N947        C951   1.350       .  A
N947        H978   1.042       .  S
N948        C955   1.349       .  A
N948        C956   1.353       .  A
C949        C957   1.386       .  A
C949        C965   1.433       .  A
C950        C966   1.439       .  A
C950        C958   1.389       .  A
C951        C959   1.386       .  A
C951        C968   1.407   1_565  A
C952        C967   1.410       .  A
C952        C960   1.389       .  A
C953        C965   1.420       .  A
C953        C961   1.394       .  A
C954        C962   1.380       .  A
C955        C963   1.389       .  A
C955        C966   1.418       .  A
C956        C964   1.385       .  A
C956        C967   1.413       .  A
C957        H969   1.082       .  S
C958        H970   1.081       .  S
C959        C960   1.374       .  A
C959        H971   1.082       .  S
C960        H972   1.083       .  S
C961        C962   1.373       .  A
C961        H973   1.078       .  S
C962        H974   1.083       .  S
C963        C964   1.380       .  A
C963        H975   1.082       .  S
C964        H976   1.083       .  S
C967       C1078   1.494       .  S
C968       C1169   1.490       .  S
C979        S980   1.795       .  S
C979        S983   1.798       .  S
C979        C987   1.347   1_556  D
S980        C981   1.790       .  S
C981        C982   1.349       .  D
C981       C1109   1.483       .  S
C982        S983   1.789       .  S
C982       C1089   1.486       .  S
C984        S988   1.800       .  S
C984        C985   1.369       .  D
C984       C1069   1.520       .  S
C985        S986   1.799       .  S
C985       C1049   1.492       .  S
S986        C987   1.784       .  S
C987        S988   1.783       .  S
O989        C992   1.263       .  A
O989       Cd994   2.571       .  S
C990        O999   1.264       .  A
C990        O995   1.262       .  A
O991        C997   1.265       .  A
O991       Cd994   2.483       .  S
C992       O1000   1.264       .  A
C993        O998   1.267       .  A
C993        O996   1.269       .  A
C993       C2289   1.504       .  S
Cd994      O1001   2.585       .  S
Cd994      O1000   2.474       .  S
Cd994       O999   2.517       .  S
Cd994       O995   2.561       .  S
Cd994       O998   2.541       .  S
Cd994       O996   2.483       .  S
C997       O1001   1.267       .  A
O1002      C1005   1.266       .  A
O1002     Cd1007   2.525       .  S
C1003      O1012   1.266       .  A
C1003      O1008   1.268       .  A
O1004      C1010   1.262       .  A
O1004     Cd1007   2.551       .  S
C1005      O1013   1.268       .  A
C1006      O1011   1.262       .  A
C1006      O1009   1.263       .  A
Cd1007     O1014   2.471       .  S
Cd1007     O1013   2.448       .  S
Cd1007     O1012   2.576       .  S
Cd1007     O1008   2.464       .  S
Cd1007     O1011   2.552       .  S
Cd1007     O1009   2.487       .  S
C1010      O1014   1.268       .  A
N1015      C1020   1.360       .  A
N1015      C1019   1.364   1_455  A
N1015      H1047   1.037       .  S
N1016      C2391   1.349       .  A
N1016      C1024   1.352       .  A
N1017      C1022   1.352       .  A
N1017      C1021   1.350       .  A
N1017      H1048   1.039       .  S
N1018      C1025   1.351       .  A
N1018      C1026   1.357       .  A
C1019      C1027   1.387       .  A
C1019      C2403   1.435       .  A
C1020      C1036   1.433       .  A
C1020      C1028   1.388       .  A
C1021      C1029   1.386       .  A
C1021      C1038   1.410   1_455  A
C1022      C1037   1.414       .  A
C1022      C1030   1.389       .  A
C1023      N2384   1.349       .  A
C1023      C1035   1.417       .  A
C1023      C1031   1.391       .  A
C1024      C1038   1.405       .  A
C1024      C2400   1.382       .  A
C1025      C1033   1.392       .  A
C1025      C1036   1.423       .  A
C1026      C1034   1.381       .  A
C1026      C1037   1.412       .  A
C1027      C1028   1.387   1_655  A
C1027      H2407   1.082       .  S
C1028      H1040   1.082       .  S
C1029      C1030   1.367       .  A
C1029      H1041   1.082       .  S
C1030      H1042   1.079       .  S
C1031      C1032   1.370       .  A
C1031      H1043   1.082       .  S
C1032      C2392   1.382       .  A
C1032      H1044   1.083       .  S
C1033      C1034   1.368       .  A
C1033      H1045   1.081       .  S
C1034      H1046   1.082       .  S
C1035      C2387   1.435       .  A
C1037      C1058   1.495       .  S
C1038      C1198   1.483       .  S
H1039      C2395   1.082       .  S
C1049      C1050   1.415       .  A
C1049      C1054   1.408       .  A
C1050      C1051   1.409       .  A
C1050     Br1062   1.935       .  S
C1051      C1052   1.408       .  A
C1051     Br1066   1.922       .  S
C1052      C1055   1.493       .  S
C1052      C1053   1.415       .  A
C1053      C1054   1.411       .  A
C1053     Br1061   1.930       .  S
C1054     Br1065   1.928       .  S
C1055      C1056   1.410       .  A
C1055      C1060   1.410       .  A
C1056      C1057   1.409       .  A
C1056     Br1067   1.924       .  S
C1057      C1058   1.409       .  A
C1057     Br1063   1.924       .  S
C1058      C1059   1.410       .  A
C1059      C1060   1.406       .  A
C1059     Br1068   1.929       .  S
C1060     Br1064   1.921       .  S
C1069      C1070   1.436       .  A
C1069      C1074   1.403       .  A
C1070      C1071   1.419       .  A
C1070     Br1082   1.930       .  S
C1071      C1072   1.414       .  A
C1071     Br1086   1.932       .  S
C1072      C1075   1.494       .  S
C1072      C1073   1.398       .  A
C1073      C1074   1.389       .  A
C1073     Br1081   1.918       .  S
C1074     Br1085   1.916       .  S
C1075      C1076   1.421       .  A
C1075      C1080   1.411       .  A
C1076      C1077   1.406       .  A
C1076     Br1087   1.935       .  S
C1077      C1078   1.410       .  A
C1077     Br1083   1.933       .  S
C1078      C1079   1.415       .  A
C1079      C1080   1.405       .  A
C1079     Br1088   1.932       .  S
C1080     Br1084   1.932       .  S
C1089      C1090   1.407       .  A
C1089      C1094   1.410       .  A
C1090      C1091   1.406       .  A
C1090     Br1102   1.925       .  S
C1091      C1092   1.412       .  A
C1091     Br1106   1.928       .  S
C1092      C1095   1.486       .  S
C1092      C1093   1.408       .  A
C1093      C1094   1.406       .  A
C1093     Br1101   1.923       .  S
C1094     Br1105   1.930       .  S
C1095      C1096   1.412       .  A
C1095      C1100   1.410       .  A
C1096      C1097   1.405       .  A
C1096     Br1107   1.929       .  S
C1097      C1098   1.406       .  A
C1097     Br1103   1.926       .  S
C1098      C1099   1.411       .  A
C1099      C1100   1.407       .  A
C1099     Br1108   1.929       .  S
C1100     Br1104   1.926       .  S
C1109      C1110   1.408       .  A
C1109      C1114   1.411       .  A
C1110      C1111   1.404       .  A
C1110     Br1122   1.923       .  S
C1111      C1112   1.407       .  A
C1111     Br1126   1.929       .  S
C1112      C1115   1.479       .  S
C1112      C1113   1.407       .  A
C1113      C1114   1.405       .  A
C1113     Br1121   1.926       .  S
C1114     Br1125   1.931       .  S
C1115      C1116   1.407       .  A
C1115      C1120   1.407       .  A
C1116      C1117   1.404       .  A
C1116     Br1127   1.923       .  S
C1117      C1118   1.407       .  A
C1117     Br1123   1.926       .  S
C1118      C1119   1.410       .  A
C1119      C1120   1.403       .  A
C1119     Br1128   1.931       .  S
C1120     Br1124   1.926       .  S
C1129      C1130   1.411       .  A
C1129      C1134   1.410       .  A
C1130      C1131   1.405       .  A
C1130     Br1142   1.930       .  S
C1131      C1132   1.408       .  A
C1131     Br1146   1.928       .  S
C1132      C1135   1.486       .  S
C1132      C1133   1.408       .  A
C1133      C1134   1.409       .  A
C1133     Br2509   1.923       .  S
C1134     Br2513   1.926       .  S
C1135      C1136   1.408       .  A
C1135      C1140   1.408       .  A
C1136      C1137   1.407       .  A
C1136     Br2515   1.923       .  S
C1137      C1138   1.411       .  A
C1137     Br2511   1.931       .  S
C1138      C1139   1.409       .  A
C1139      C1140   1.406       .  A
C1140     Br1144   1.928       .  S
Br1141     C2501   1.923       .  S
Br1143     C2505   1.931       .  S
Br1145     C2502   1.926       .  S
Br1147     C2504   1.923       .  S
C1149      C1150   1.411       .  A
C1150      C1151   1.408       .  A
C1150     Br1162   1.928       .  S
C1151      C1152   1.408       .  A
C1151     Br1166   1.921       .  S
C1152      C1155   1.490       .  S
C1153      C1154   1.408       .  A
C1153     Br1161   1.923       .  S
C1154     Br1165   1.923       .  S
C1155      C1156   1.408       .  A
C1155      C1160   1.411       .  A
C1156      C1157   1.408       .  A
C1156     Br1167   1.920       .  S
C1157      C1158   1.411       .  A
C1157     Br1163   1.930       .  S
C1158      C1159   1.409       .  A
C1159      C1160   1.407       .  A
C1159     Br1168   1.925       .  S
C1160     Br1164   1.929       .  S
C1169      C1174   1.407       .  A
C1170      C1171   1.406       .  A
C1170     Br1182   1.926       .  S
C1171     Br1186   1.928       .  S
C1172      C1175   1.494       .  S
C1172      C1173   1.415       .  A
C1173      C1174   1.410       .  A
C1173     Br1181   1.926       .  S
C1174     Br1185   1.928   1_545  S
C1175      C1176   1.412       .  A
C1176      C1177   1.410       .  A
C1176     Br1187   1.925       .  S
C1177      C1178   1.410       .  A
C1177     Br1183   1.929   1_455  S
C1179      C1180   1.407       .  A
C1179     Br1188   1.926       .  S
C1180     Br1184   1.939       .  S
C1189      C1190   1.409       .  A
C1189      C1194   1.406       .  A
C1190      C1191   1.407       .  A
C1190     Br2570   1.928   1_655  S
C1191      C1192   1.413       .  A
C1191     Br2574   1.931   1_655  S
C1192      C1195   1.488       .  S
C1192      C1193   1.412       .  A
C1193      C1194   1.404       .  A
C1193     Br1201   1.929       .  S
C1195      C2564   1.408       .  A
C1195      C1200   1.410   1_655  A
C1196      C2563   1.408       .  A
C1196      C1197   1.406       .  A
C1196     Br1207   1.912       .  S
C1197      C2566   1.406       .  A
C1197     Br1203   1.927       .  S
C1198      C2565   1.406       .  A
C1198      C1199   1.406   1_655  A
C1199      C1200   1.402       .  A
C1199     Br1208   1.931       .  S
C1200     Br1204   1.917       .  S
Br1202     C2558   1.928       .  S
Br1206     C2559   1.931       .  S
C1209      C1210   1.407       .  A
C1209      C1214   1.406       .  A
C1210      C1211   1.405       .  A
C1210     Br1222   1.929       .  S
C1211      C1212   1.413       .  A
C1211     Br1226   1.935       .  S
C1212      C1215   1.486       .  S
C1212      C1213   1.413       .  A
C1213      C1214   1.406       .  A
C1213     Br1221   1.924       .  S
C1214     Br1225   1.930       .  S
C1215      C1216   1.414       .  A
C1215      C1220   1.414       .  A
C1216      C1217   1.404       .  A
C1216     Br1227   1.934       .  S
C1217      C1218   1.406       .  A
C1217     Br1223   1.926       .  S
C1218      C1219   1.407       .  A
C1219      C1220   1.405       .  A
C1219     Br1228   1.933       .  S
C1220     Br1224   1.924       .  S
C1229      C1230   1.406       .  A
C1229      C1234   1.412       .  A
C1230      C1231   1.401       .  A
C1230     Br1242   1.925       .  S
C1231      C1232   1.412       .  A
C1231     Br1246   1.926       .  S
C1232      C1235   1.491       .  S
C1232      C1233   1.409       .  A
C1233      C1234   1.410       .  A
C1233     Br1241   1.922       .  S
C1234     Br1245   1.928       .  S
C1235      C1236   1.415       .  A
C1235      C1240   1.411       .  A
C1236      C1237   1.410       .  A
C1236     Br1247   1.930       .  S
C1237      C1238   1.410       .  A
C1237     Br1243   1.928       .  S
C1238      C1239   1.411       .  A
C1239      C1240   1.405       .  A
C1239     Br1248   1.931       .  S
C1240     Br1244   1.934       .  S
C1249      C1250   1.406       .  A
C1249      C1254   1.409       .  A
C1250      C1251   1.403       .  A
C1250     Br1262   1.930   1_655  S
C1251      C1252   1.409       .  A
C1251     Br1266   1.920   1_655  S
C1252      C1255   1.483       .  S
C1252      C1253   1.410       .  A
C1253      C1254   1.405       .  A
C1253     Br2629   1.929       .  S
C1254     Br1265   1.929       .  S
C1255      C2624   1.408       .  A
C1255      C1260   1.411       .  A
C1256      C2623   1.408       .  A
C1256      C1257   1.406       .  A
C1256     Br1267   1.927       .  S
C1257      C2626   1.408       .  A
C1257     Br1263   1.925       .  S
C1258      C2625   1.408       .  A
C1258      C1259   1.410   1_655  A
C1259      C1260   1.405   1_455  A
C1259     Br1268   1.931       .  S
C1260     Br1264   1.931   1_655  S
Br1261     C2621   1.929       .  S
C1269      C1274   1.406   1_545  A
C1270      C1271   1.409       .  A
C1270     Br1282   1.930       .  S
C1271     Br1286   1.922       .  S
C1272      C1275   1.486       .  S
C1272      C1273   1.411   1_545  A
C1273      C1274   1.400       .  A
C1273     Br1281   1.930       .  S
C1274     Br1285   1.924       .  S
C1275      C1276   1.411       .  A
C1275      C1280   1.413       .  A
C1276      C1277   1.403       .  A
C1277      C1278   1.410       .  A
C1278      C1279   1.409       .  A
C1279      C1280   1.408       .  A
C1279     Br1288   1.928       .  S
C1280     Br1284   1.930       .  S
C1289      C1290   1.412       .  A
C1289      C1294   1.413       .  A
C1290      C1291   1.411       .  A
C1290     Br1302   1.925   1_565  S
C1291      C1292   1.411       .  A
C1291     Br1306   1.929       .  S
C1292      C1295   1.496       .  S
C1292      C1293   1.412       .  A
C1293      C1294   1.410       .  A
C1293     Br1301   1.929       .  S
C1294     Br1305   1.931       .  S
C1295      C1296   1.411       .  A
C1295      C1300   1.413       .  A
C1296      C1297   1.406       .  A
C1296     Br1307   1.918       .  S
C1297      C1298   1.406       .  A
C1297     Br1303   1.929       .  S
C1298      C1299   1.411       .  A
C1299      C1300   1.411       .  A
C1299     Br1308   1.927       .  S
C1300     Br1304   1.929       .  S
C1309      C1310   1.409       .  A
C1309      C1314   1.409       .  A
C1310      C1311   1.408       .  A
C1310     Br1322   1.925       .  S
C1311      C1312   1.417       .  A
C1311     Br1326   1.937       .  S
C1312      C1315   1.497       .  S
C1312      C1313   1.415       .  A
C1313      C1314   1.409       .  A
C1313     Br1321   1.927       .  S
C1315      C1316   1.416       .  A
C1315      C1320   1.413       .  A
C1316      C1317   1.412       .  A
C1316     Br1327   1.929       .  S
C1317      C1318   1.410       .  A
C1317     Br1323   1.929       .  S
C1318      C1319   1.413       .  A
C1319      C1320   1.409       .  A
C1319     Br1328   1.930       .  S
C1320     Br1324   1.937       .  S
C1329      C1330   1.411       .  A
C1329      C2702   1.405       .  A
C1330      C1331   1.404       .  A
C1330     Br1342   1.929       .  S
C1331      C1332   1.408       .  A
C1331     Br1346   1.924       .  S
C1332      C1335   1.486       .  S
C1332      C2701   1.407       .  A
C1333      C2700   1.408       .  A
C1333      C1334   1.406       .  A
C1333     Br1341   1.913       .  S
C1334      C2697   1.405       .  A
C1334     Br1345   1.927       .  S
C1335      C1336   1.410       .  A
C1335      C1340   1.409       .  A
C1336      C1337   1.408       .  A
C1336     Br2715   1.931       .  S
C1337      C1338   1.412       .  A
C1337     Br2711   1.930       .  S
C1338      C1339   1.410       .  A
C1339      C1340   1.406       .  A
C1339     Br1348   1.923       .  S
C1340     Br1344   1.932       .  S
Br1343     C2705   1.930   1_655  S
Br1347     C2704   1.931   1_655  S
C1349      C1350   1.407       .  A
C1350      C1351   1.399       .  A
C1350     Br1362   1.929       .  S
C1351      C1352   1.404       .  A
C1351     Br1366   1.917       .  S
C1352      C1355   1.479       .  S
C1353      C1354   1.405       .  A
C1353     Br1361   1.909       .  S
C1354     Br1365   1.927       .  S
C1355      C1356   1.407       .  A
C1355      C1360   1.408       .  A
C1356      C1357   1.406       .  A
C1356     Br1367   1.931       .  S
C1357      C1358   1.411       .  A
C1357     Br1363   1.923       .  S
C1358      C1359   1.411       .  A
C1359      C1360   1.405       .  A
C1359     Br1368   1.930       .  S
C1360     Br1364   1.931       .  S
O1369      C1372   1.264       .  A
O1369     Cd1374   2.557       .  S
C1370      O1379   1.270       .  A
C1370      O1375   1.265       .  A
C1370      C1650   1.513       .  S
O1371      C1377   1.264       .  A
O1371     Cd1374   2.546       .  S
C1372      O1380   1.266       .  A
C1372      C1447   1.507       .  S
C1373      O1378   1.263       .  A
C1373      O1376   1.262       .  A
C1373      C1524   1.508       .  S
Cd1374     O1381   2.490       .  S
Cd1374     O1380   2.501       .  S
Cd1374     O1379   2.520       .  S
Cd1374     O1375   2.546       .  S
Cd1374     O1378   2.580       .  S
Cd1374     O1376   2.527       .  S
C1377      O1381   1.270       .  A
C1377      C1719   1.502       .  S
N1382      C1387   1.346       .  A
N1382      C1386   1.345       .  A
N1382      H1414   1.040       .  S
N1383      C1390   1.355       .  A
N1384      C1389   1.363   1_545  A
N1384      C1388   1.362   1_655  A
N1384      H1415   1.039       .  S
N1385      C1392   1.352       .  A
N1385      C2077   1.346       .  A
C1386      C1394   1.388       .  A
C1386      C1402   1.403   1_655  A
C1387      C1403   1.402   1_545  A
C1387      C1395   1.387       .  A
C1388      C1396   1.388       .  A
C1389      C2088   1.436       .  A
C1389      C1397   1.387       .  A
C1390      C1402   1.409       .  A
C1391      C1405   1.420       .  A
C1391      C1399   1.393       .  A
C1392      C2084   1.381       .  A
C1392      C1403   1.402       .  A
C1393      N2069   1.346       .  A
C1393      C1401   1.392       .  A
C1393      C1404   1.414       .  A
C1394      C1395   1.373       .  A
C1394      H1406   1.082   1_655  S
C1395      H1407   1.082   1_545  S
C1396      C1397   1.389   1_445  A
C1397      H2093   1.082       .  S
C1398      C1399   1.374       .  A
C1398      H1410   1.082       .  S
C1399      H1411   1.082       .  S
C1400      C2076   1.381       .  A
C1400      C1401   1.370       .  A
C1400      H1412   1.083       .  S
C1401      H1413   1.082       .  S
C1402      C2013   1.485       .  S
C1403      C2033   1.476       .  S
C1404      C1694   1.500       .  S
C1404      C2073   1.436       .  A
C1405      C1676   1.500       .  S
H1409      C2081   1.082       .  S
C1416      S1417   1.800       .  S
C1416      S2104   1.794       .  S
C1416      C2108   1.352       .  D
S1417      C1418   1.799       .  S
C1418      C1419   1.354       .  D
C1418      C1973   1.498       .  S
C1419      S2104   1.793       .  S
C1419      C1953   1.488       .  S
S1420      C2100   1.794   1_545  S
S1420      C2103   1.793   1_545  S
C1421      S1425   1.792       .  S
C1421      C1422   1.351   1_545  D
C1421      C1993   1.492       .  S
C1422      S2107   1.796       .  S
C1422      C2042   1.487       .  S
S1423      C2106   1.796       .  S
S1423      C2108   1.796       .  S
C1424      S2107   1.796       .  S
C1424      S1425   1.800   1_565  S
C1424      C2100   1.352       .  D
N1426      C1431   1.364       .  A
N1426      C1430   1.364       .  A
N1426      H1458   1.041       .  S
N1427      C2118   1.344       .  A
N1427      C1435   1.352       .  A
N1428      C1433   1.346       .  A
N1428      C1432   1.348       .  A
N1428      H1459   1.041       .  S
N1429      C1437   1.354       .  A
C1430      C1438   1.388       .  A
C1430      C2130   1.438       .  A
C1431      C1439   1.388       .  A
C1432      C1440   1.383       .  A
C1432      C1449   1.404       .  A
C1433      C1448   1.407       .  A
C1433      C1441   1.390       .  A
C1434      N2111   1.344       .  A
C1434      C1446   1.413       .  A
C1434      C1442   1.392       .  A
C1435      C1449   1.403       .  A
C1435      C2127   1.381       .  A
C1436      C1444   1.394       .  A
C1436      C1447   1.423       .  A
C1437      C1448   1.408       .  A
C1438      C1439   1.390       .  A
C1438      H2134   1.082       .  S
C1440      C1441   1.369       .  A
C1440      H1452   1.081       .  S
C1441      H1453   1.081       .  S
C1442      C1443   1.375       .  A
C1442      H1454   1.082       .  S
C1443      C2119   1.381       .  A
C1443      H1455   1.083       .  S
C1444      C1445   1.371       .  A
C1444      H1456   1.077       .  S
C1445      H1457   1.081       .  S
C1446      C1620   1.500       .  S
C1446      C2114   1.438       .  A
C1448      C1933   1.483       .  S
C1449      C1962   1.486       .  S
H1450      C2122   1.082       .  S
C1460      S1464   1.795       .  S
C1462      C1463   1.351       .  D
C1462      C1942   1.485       .  S
C1463      S1464   1.793       .  S
C1463      C1913   1.488       .  S
C1465      C1466   1.350   1_455  D
C1465      C2022   1.491       .  S
C1466      S1467   1.786       .  S
C1466      C1902   1.481       .  S
S1467      C1468   1.794   1_655  S
N1470      C1475   1.348       .  A
N1470      C1474   1.348       .  A
N1470      H1502   1.042       .  S
N1471      C1478   1.352       .  A
N1471      C1479   1.347       .  A
N1472      C1477   1.364       .  A
N1472      C1476   1.366       .  A
N1472      H1503   1.041       .  S
N1473      C1480   1.358       .  A
N1473      C1481   1.351       .  A
C1474      C1482   1.387       .  A
C1474      C1490   1.406       .  A
C1475      C1491   1.408       .  A
C1475      C1483   1.388       .  A
C1476      C1484   1.387       .  A
C1476      C1493   1.438       .  A
C1477      C1492   1.439       .  A
C1477      C1485   1.388       .  A
C1478      C1490   1.405       .  A
C1478      C1486   1.382       .  A
C1479      C1493   1.415       .  A
C1479      C1487   1.392       .  A
C1480      C1488   1.382       .  A
C1480      C1491   1.415       .  A
C1481      C1489   1.392       .  A
C1481      C1492   1.425       .  A
C1482      C1483   1.373       .  A
C1482      H1494   1.082       .  S
C1483      H1495   1.082       .  S
C1484      C1485   1.388       .  A
C1484      H1496   1.081       .  S
C1485      H1497   1.081       .  S
C1486      C1487   1.374       .  A
C1486      H1498   1.083       .  S
C1487      H1499   1.083       .  S
C1488      C1489   1.378       .  A
C1488      H1500   1.082       .  S
C1489      H1501   1.082       .  S
C1490      C1893   1.483       .  S
C1491      C2002   1.497       .  S
C1492      C1681   1.511       .  S
C1493      C1687   1.508       .  S
N1504      C1509   1.365       .  A
N1504      C1508   1.364       .  A
N1504      H1536   1.040       .  S
N1505      C1512   1.351       .  A
N1505      C1513   1.356       .  A
N1506      C1511   1.349       .  A
N1506      C1510   1.349       .  A
N1506      H1537   1.042       .  S
N1507      C1514   1.345       .  A
N1507      C1515   1.352       .  A
C1508      C1516   1.388       .  A
C1508      C1524   1.439       .  A
C1509      C1525   1.440       .  A
C1509      C1517   1.388       .  A
C1510      C1518   1.389       .  A
C1510      C1527   1.407       .  A
C1511      C1526   1.406       .  A
C1511      C1519   1.382       .  A
C1512      C1524   1.426       .  A
C1512      C1520   1.393       .  A
C1513      C1527   1.411       .  A
C1513      C1521   1.378       .  A
C1514      C1522   1.392       .  A
C1514      C1525   1.415       .  A
C1515      C1523   1.381       .  A
C1515      C1526   1.404       .  A
C1516      C1517   1.388       .  A
C1516      H1528   1.082       .  S
C1517      H1529   1.081       .  S
C1518      C1519   1.368       .  A
C1518      H1530   1.081       .  S
C1519      H1531   1.078       .  S
C1520      C1521   1.375       .  A
C1520      H1532   1.078       .  S
C1521      H1533   1.082       .  S
C1522      C1523   1.377       .  A
C1522      H1534   1.082       .  S
C1523      H1535   1.083       .  S
C1525      C1617   1.505       .  S
C1526      C1922   1.491       .  S
C1527      C1982   1.491       .  S
C1538      S2223   1.799   1_545  S
S1539      C2222   1.800       .  S
S1539      C2224   1.795       .  S
C1540      S2223   1.795       .  S
C1540      C1541   1.351   1_565  D
C1540      C1842   1.491       .  S
C1541      C1822   1.487       .  S
C1543      S2231   1.790       .  S
C1543      C1544   1.351       .  D
C1543      C1862   1.492       .  S
C1544      C1873   1.485       .  S
C1546      S2231   1.800       .  S
S1547      C2227   1.790       .  S
S1547      C2230   1.800       .  S
N1548      C1553   1.352   1_545  A
N1548      C1552   1.348       .  A
N1548      H1580   1.039       .  S
N1549      C1556   1.354       .  A
N1549      C1557   1.353       .  A
N1550      C1555   1.360   1_545  A
N1550      C1554   1.362       .  A
N1550      H1581   1.039       .  S
N1551      C2242   1.356       .  A
N1551      C2243   1.349       .  A
C1552      C1560   1.387       .  A
C1552      C1568   1.409       .  A
C1553      C1569   1.413       .  A
C1553      C1561   1.388       .  A
C1554      C1562   1.387       .  A
C1554      C1571   1.434       .  A
C1555      C2254   1.432       .  A
C1555      C2247   1.387       .  A
C1556      C1568   1.410       .  A
C1556      C1564   1.382       .  A
C1557      C1571   1.422       .  A
C1557      C1565   1.391       .  A
C1558      N2235   1.356       .  A
C1558      C1566   1.380       .  A
C1558      C2253   1.408       .  A
C1559      N2235   1.349       .  A
C1559      C1567   1.393       .  A
C1559      C1570   1.421       .  A
C1560      C1561   1.365   1_545  A
C1560      H1572   1.082       .  S
C1561      H1573   1.078       .  S
C1562      C2247   1.386   1_545  A
C1562      H1574   1.082       .  S
C1563      C2239   1.387       .  A
C1563      C2246   1.386       .  A
C1563      H1575   1.082       .  S
C1564      C1565   1.373       .  A
C1564      H1576   1.083       .  S
C1565      H1577   1.082       .  S
C1566      C1567   1.368       .  A
C1566      H1578   1.082       .  S
C1567      H1579   1.081       .  S
C1568      C1802   1.483       .  S
C1569      C1833   1.494       .  S
C1569      C2242   1.408       .  A
C1570      C1689   1.493       .  S
C1570      C2239   1.432       .  A
C1571      C1674   1.503       .  S
N1582      C1587   1.351       .  A
N1582      C1586   1.351       .  A
N1582      H1614   1.035       .  S
N1583      C1590   1.356       .  A
N1583      C1591   1.352       .  A
N1584      C1589   1.362       .  A
N1584      C1588   1.363   1_655  A
N1584      H1615   1.034       .  S
N1585      C1592   1.356       .  A
N1585      C1593   1.351       .  A
C1586      C1594   1.385       .  A
C1586      C1602   1.408   1_655  A
C1587      C1603   1.415       .  A
C1587      C1595   1.389       .  A
C1588      C1596   1.388       .  A
C1588      C1605   1.436       .  A
C1589      C1604   1.433       .  A
C1589      C1597   1.386   1_655  A
C1590      C1602   1.410       .  A
C1591      C1605   1.424       .  A
C1592      C1600   1.381       .  A
C1592      C1603   1.410       .  A
C1593      C1601   1.393       .  A
C1593      C1604   1.422       .  A
C1594      C1595   1.361       .  A
C1594      H1606   1.082       .  S
C1595      H1607   1.077       .  S
C1596      C1597   1.386       .  A
C1596      H1608   1.082       .  S
C1597      H1609   1.082   1_455  S
C1598      C1599   1.374       .  A
C1598      H1610   1.082       .  S
C1599      H1611   1.082       .  S
C1600      C1601   1.367       .  A
C1600      H1612   1.082       .  S
C1601      H1613   1.081       .  S
C1602      C1813   1.491       .  S
C1603      C1782   1.492       .  S
C1604      C1690   1.497       .  S
O1616      C1619   1.264       .  A
O1616     Cd1621   2.532       .  S
C1617      O1626   1.268       .  A
C1617      O1622   1.264       .  A
O1618      C1624   1.263       .  A
O1618     Cd1621   2.537       .  S
C1619      O1627   1.265       .  A
C1619      C1649   1.493       .  S
C1620      O1625   1.269       .  A
C1620      O1623   1.265       .  A
Cd1621     O1628   2.478       .  S
Cd1621     O1627   2.487       .  S
Cd1621     O1626   2.480       .  S
Cd1621     O1622   2.557       .  S
Cd1621     O1625   2.458       .  S
Cd1621     O1623   2.556       .  S
C1624      O1628   1.266       .  A
C1624      C1720   1.497       .  S
N1629      C1634   1.365       .  A
N1629      C2317   1.361       .  A
N1629      H1661   1.041       .  S
N1630      C1637   1.347       .  A
N1630      C1638   1.354       .  A
N1631      C1636   1.347       .  A
N1631      C1635   1.350       .  A
N1631      H1662   1.042       .  S
N1632      C1639   1.349       .  A
N1632      C1640   1.353       .  A
C1633      N2313   1.361   1_545  A
C1633      C1641   1.386   1_545  A
C1633      C1649   1.433       .  A
C1634      C1650   1.439       .  A
C1634      C1642   1.389       .  A
C1635      C1643   1.387       .  A
C1635      C1652   1.407       .  A
C1636      C1651   1.410       .  A
C1636      C1644   1.389       .  A
C1637      C1649   1.420       .  A
C1637      C1645   1.394       .  A
C1638      C2336   1.407       .  A
C1638      C1646   1.379       .  A
C1639      C1647   1.389       .  A
C1639      C1650   1.418       .  A
C1640      C1648   1.385       .  A
C1640      C1651   1.413       .  A
C1641      C2326   1.386       .  A
C1641      H1653   1.082   1_565  S
C1642      C2325   1.386       .  A
C1642      H1654   1.081       .  S
C1643      C1644   1.374       .  A
C1643      H1655   1.082       .  S
C1644      H1656   1.083       .  S
C1645      C1646   1.373       .  A
C1645      H1657   1.078       .  S
C1646      H1658   1.083       .  S
C1647      C1648   1.380       .  A
C1647      H1659   1.082       .  S
C1648      H1660   1.083       .  S
C1651      C1762   1.494       .  S
C1652      C1853   1.489       .  S
C1652      C2322   1.407       .  A
C1663      S1664   1.795       .  S
C1663      S1667   1.798       .  S
C1663      C1671   1.347   1_556  D
S1664      C1665   1.790       .  S
C1665      C1666   1.349       .  D
C1665      C1793   1.484       .  S
C1666      S1667   1.789       .  S
C1666      C1773   1.486       .  S
C1668      S1672   1.801       .  S
C1668      C1669   1.369       .  D
C1668      C1753   1.520       .  S
C1669      S1670   1.799       .  S
C1669      C1733   1.492       .  S
S1670      C1671   1.785       .  S
C1671      S1672   1.783       .  S
O1673      C1676   1.263       .  A
O1673     Cd1678   2.572       .  S
C1674      O1683   1.264       .  A
C1674      O1679   1.262       .  A
O1675      C1681   1.265       .  A
O1675     Cd1678   2.483       .  S
C1676      O1684   1.264       .  A
C1677      O1682   1.267       .  A
C1677      O1680   1.269       .  A
Cd1678     O1685   2.584       .  S
Cd1678     O1684   2.474       .  S
Cd1678     O1683   2.516       .  S
Cd1678     O1679   2.560       .  S
Cd1678     O1682   2.542       .  S
Cd1678     O1680   2.483       .  S
C1681      O1685   1.267       .  A
O1686      C1689   1.266       .  A
O1686     Cd1691   2.524       .  S
C1687      O1696   1.266       .  A
C1687      O1692   1.268       .  A
O1688      C1694   1.262       .  A
O1688     Cd1691   2.552       .  S
C1689      O1697   1.268       .  A
C1690      O1695   1.262       .  A
C1690      O1693   1.263       .  A
Cd1691     O1698   2.471       .  S
Cd1691     O1697   2.449       .  S
Cd1691     O1696   2.576       .  S
Cd1691     O1692   2.466       .  S
Cd1691     O1695   2.554       .  S
Cd1691     O1693   2.487       .  S
C1694      O1698   1.268       .  A
N1699      C1704   1.360       .  A
N1699      C1703   1.364       .  A
N1699      H1731   1.037       .  S
N1700      C1708   1.352       .  A
N1701      C1706   1.352       .  A
N1701      C1705   1.350       .  A
N1701      H1732   1.039       .  S
N1702      C1709   1.351       .  A
N1702      C1710   1.357       .  A
C1703      C1711   1.387       .  A
C1704      C1720   1.433       .  A
C1704      C1712   1.388       .  A
C1705      C1713   1.386       .  A
C1705      C1722   1.410       .  A
C1706      C1721   1.414       .  A
C1706      C1714   1.389       .  A
C1707      C1719   1.417       .  A
C1707      C1715   1.391       .  A
C1708      C1722   1.405       .  A
C1709      C1717   1.392       .  A
C1709      C1720   1.423       .  A
C1710      C1718   1.381       .  A
C1710      C1721   1.412       .  A
C1711      C1712   1.387       .  A
C1712      H1724   1.082       .  S
C1713      C1714   1.367       .  A
C1713      H1725   1.082       .  S
C1714      H1726   1.079       .  S
C1715      C1716   1.370       .  A
C1715      H1727   1.082       .  S
C1716      H1728   1.083       .  S
C1717      C1718   1.369       .  A
C1717      H1729   1.081       .  S
C1718      H1730   1.082       .  S
C1721      C1742   1.495       .  S
C1722      C1882   1.483       .  S
C1733      C1734   1.415       .  A
C1733      C1738   1.408       .  A
C1734      C1735   1.409       .  A
C1734     Br1746   1.935       .  S
C1735      C1736   1.408       .  A
C1735     Br1750   1.922       .  S
C1736      C1739   1.493       .  S
C1736      C1737   1.415       .  A
C1737      C1738   1.411       .  A
C1737     Br1745   1.930       .  S
C1738     Br1749   1.927       .  S
C1739      C1740   1.410       .  A
C1739      C1744   1.410       .  A
C1740      C1741   1.409       .  A
C1740     Br1751   1.924       .  S
C1741      C1742   1.409       .  A
C1741     Br1747   1.925       .  S
C1742      C1743   1.410       .  A
C1743      C1744   1.406       .  A
C1743     Br1752   1.929       .  S
C1744     Br1748   1.921       .  S
C1753      C1754   1.436       .  A
C1753      C1758   1.403       .  A
C1754      C1755   1.418       .  A
C1754     Br1766   1.930       .  S
C1755      C1756   1.414       .  A
C1755     Br1770   1.932       .  S
C1756      C1759   1.494       .  S
C1756      C1757   1.398       .  A
C1757      C1758   1.390       .  A
C1757     Br1765   1.918       .  S
C1758     Br1769   1.916       .  S
C1759      C1760   1.421       .  A
C1759      C1764   1.411       .  A
C1760      C1761   1.406       .  A
C1760     Br1771   1.935       .  S
C1761      C1762   1.410       .  A
C1761     Br1767   1.933       .  S
C1762      C1763   1.415       .  A
C1763      C1764   1.405       .  A
C1763     Br1772   1.932       .  S
C1764     Br1768   1.932       .  S
C1773      C1774   1.407       .  A
C1773      C1778   1.409       .  A
C1774      C1775   1.406       .  A
C1774     Br1786   1.925       .  S
C1775      C1776   1.412       .  A
C1775     Br1790   1.928       .  S
C1776      C1779   1.486       .  S
C1776      C1777   1.408       .  A
C1777      C1778   1.406       .  A
C1777     Br1785   1.923       .  S
C1778     Br1789   1.930       .  S
C1779      C1780   1.412       .  A
C1779      C1784   1.410       .  A
C1780      C1781   1.405       .  A
C1780     Br1791   1.929       .  S
C1781      C1782   1.406       .  A
C1781     Br1787   1.926       .  S
C1782      C1783   1.411       .  A
C1783      C1784   1.407       .  A
C1783     Br1792   1.929       .  S
C1784     Br1788   1.926       .  S
C1793      C1794   1.408       .  A
C1793      C1798   1.411       .  A
C1794      C1795   1.404       .  A
C1794     Br1806   1.923       .  S
C1795      C1796   1.407       .  A
C1795     Br1810   1.929       .  S
C1796      C1799   1.479       .  S
C1796      C1797   1.407       .  A
C1797      C1798   1.405       .  A
C1797     Br1805   1.926       .  S
C1798     Br1809   1.931       .  S
C1799      C1800   1.407       .  A
C1799      C1804   1.407       .  A
C1800      C1801   1.404       .  A
C1800     Br1811   1.924       .  S
C1801      C1802   1.407       .  A
C1801     Br1807   1.926       .  S
C1802      C1803   1.410       .  A
C1803      C1804   1.403       .  A
C1803     Br1812   1.931       .  S
C1804     Br1808   1.926       .  S
C1813      C1814   1.411   1_455  A
C1813      C1818   1.410       .  A
C1814      C1815   1.405       .  A
C1814     Br1826   1.930       .  S
C1815      C1816   1.408   1_655  A
C1815     Br1830   1.928       .  S
C1816      C1819   1.487       .  S
C1816      C1817   1.408       .  A
C1817      C1818   1.409       .  A
C1819      C1820   1.408   1_455  A
C1819      C1824   1.409       .  A
C1820      C1821   1.407       .  A
C1821      C1822   1.411       .  A
C1822      C1823   1.409   1_655  A
C1823      C1824   1.406       .  A
C1823     Br2516   1.923   1_545  S
C1824     Br1828   1.928       .  S
Br1832     C2507   1.923       .  S
C1833      C1834   1.411       .  A
C1833      C2522   1.406       .  A
C1834      C1835   1.408       .  A
C1834     Br1846   1.928   1_565  S
C1835      C1836   1.408       .  A
C1835     Br1850   1.922       .  S
C1836      C1839   1.490       .  S
C1836      C2521   1.410       .  A
C1837      C2520   1.410       .  A
C1837      C1838   1.408       .  A
C1837     Br1845   1.923       .  S
C1838      C2517   1.406       .  A
C1838     Br1849   1.923       .  S
C1839      C1840   1.408       .  A
C1839      C1844   1.411       .  A
C1840      C1841   1.408       .  A
C1840     Br1851   1.920       .  S
C1841      C1842   1.410       .  A
C1841     Br1847   1.930       .  S
C1842      C1843   1.409   1_565  A
C1843      C1844   1.407   1_545  A
C1843     Br1852   1.925       .  S
C1844     Br1848   1.929   1_565  S
C1853      C2538   1.407       .  A
C1853      C1858   1.407       .  A
C1854      C2537   1.407       .  A
C1854      C1855   1.406       .  A
C1854     Br1866   1.926       .  S
C1855      C2540   1.410       .  A
C1855     Br1870   1.928       .  S
C1856      C1859   1.494       .  S
C1856      C2539   1.410       .  A
C1856      C1857   1.415       .  A
C1857      C1858   1.410       .  A
C1857     Br1865   1.926       .  S
C1858     Br1869   1.928       .  S
C1859      C1860   1.412       .  A
C1859      C2548   1.417       .  A
C1860      C1861   1.410       .  A
C1860     Br1871   1.925       .  S
C1861      C1862   1.410       .  A
C1861     Br1867   1.929       .  S
C1862      C2547   1.408       .  A
C1863      C2546   1.408   1_565  A
C1863      C1864   1.407   1_565  A
C1863     Br1872   1.927       .  S
C1864      C2543   1.417       .  A
C1864     Br1868   1.940   1_545  S
C1873      C1874   1.409       .  A
C1873      C1878   1.406       .  A
C1874      C1875   1.408       .  A
C1875      C1876   1.413       .  A
C1876      C1879   1.488       .  S
C1876      C1877   1.412       .  A
C1877      C1878   1.405       .  A
C1877     Br1885   1.929       .  S
C1878     Br2573   1.925       .  S
C1879      C1884   1.410       .  A
C1880      C1881   1.405       .  A
C1880     Br1891   1.912       .  S
C1881     Br1887   1.927       .  S
C1882      C1883   1.406       .  A
C1883      C1884   1.402       .  A
C1883     Br1892   1.931       .  S
C1884     Br1888   1.917       .  S
Br1889     C2562   1.925   1_545  S
C1893      C1894   1.407       .  A
C1893      C1898   1.406       .  A
C1894      C1895   1.404       .  A
C1894     Br1906   1.929       .  S
C1895      C1896   1.413       .  A
C1895     Br1910   1.935       .  S
C1896      C1899   1.486       .  S
C1896      C1897   1.412       .  A
C1897      C1898   1.406       .  A
C1897     Br1905   1.924       .  S
C1898     Br1909   1.930       .  S
C1899      C1900   1.414       .  A
C1899      C1904   1.413       .  A
C1900      C1901   1.404       .  A
C1900     Br1911   1.934       .  S
C1901      C1902   1.406       .  A
C1901     Br1907   1.926       .  S
C1902      C1903   1.407       .  A
C1903      C1904   1.405       .  A
C1903     Br1912   1.933       .  S
C1904     Br1908   1.924       .  S
C1913      C1914   1.406       .  A
C1913      C1918   1.412       .  A
C1914      C1915   1.401       .  A
C1914     Br1926   1.925       .  S
C1915      C1916   1.413       .  A
C1915     Br1930   1.926       .  S
C1916      C1919   1.490       .  S
C1916      C1917   1.409       .  A
C1917      C1918   1.410       .  A
C1917     Br1925   1.923       .  S
C1918     Br1929   1.928       .  S
C1919      C1920   1.414       .  A
C1919      C1924   1.411       .  A
C1920      C1921   1.410       .  A
C1920     Br1931   1.930       .  S
C1921      C1922   1.410       .  A
C1921     Br1927   1.928       .  S
C1922      C1923   1.411       .  A
C1923      C1924   1.405       .  A
C1923     Br1932   1.931       .  S
C1924     Br1928   1.934       .  S
C1933      C1934   1.406       .  A
C1933      C1938   1.409       .  A
C1934      C1935   1.404       .  A
C1934     Br1946   1.930       .  S
C1935      C1936   1.409       .  A
C1935     Br1950   1.920       .  S
C1936      C1939   1.483       .  S
C1936      C1937   1.410       .  A
C1937      C1938   1.405       .  A
C1938     Br1949   1.929       .  S
C1939      C1944   1.411       .  A
C1940      C1941   1.406       .  A
C1940     Br1951   1.927       .  S
C1941     Br1947   1.925       .  S
C1942      C1943   1.410       .  A
C1943      C1944   1.405       .  A
C1943     Br1952   1.931       .  S
C1944     Br1948   1.931       .  S
C1953      C2638   1.414       .  A
C1953      C1958   1.406       .  A
C1954      C2637   1.414       .  A
C1954      C1955   1.409       .  A
C1954     Br1966   1.930       .  S
C1955      C2640   1.408       .  A
C1955     Br1970   1.922       .  S
C1956      C1959   1.486       .  S
C1956      C2639   1.408       .  A
C1956      C1957   1.411       .  A
C1957      C1958   1.400       .  A
C1957     Br1965   1.930       .  S
C1958     Br1969   1.924       .  S
C1959      C1960   1.410       .  A
C1959      C1964   1.413       .  A
C1960      C1961   1.403       .  A
C1960     Br2655   1.933       .  S
C1961      C1962   1.410       .  A
C1961     Br2651   1.930       .  S
C1962      C1963   1.409       .  A
C1963      C1964   1.408       .  A
C1963     Br1972   1.929       .  S
C1964     Br1968   1.930       .  S
Br1967     C2645   1.930       .  S
Br1971     C2644   1.933       .  S
C1973      C1974   1.412       .  A
C1973      C1978   1.413       .  A
C1974      C1975   1.411       .  A
C1974     Br1986   1.925       .  S
C1975      C1976   1.411       .  A
C1975     Br1990   1.929       .  S
C1976      C1979   1.496       .  S
C1976      C1977   1.412       .  A
C1977      C1978   1.410       .  A
C1977     Br1985   1.929       .  S
C1978     Br1989   1.931       .  S
C1979      C1980   1.411       .  A
C1979      C1984   1.413       .  A
C1980      C1981   1.406       .  A
C1980     Br1991   1.918       .  S
C1981      C1982   1.406       .  A
C1981     Br1987   1.930       .  S
C1982      C1983   1.411       .  A
C1983      C1984   1.411       .  A
C1983     Br1992   1.927       .  S
C1984     Br1988   1.930       .  S
C1993      C1994   1.409       .  A
C1993      C1998   1.409       .  A
C1994      C1995   1.408       .  A
C1994     Br2006   1.925       .  S
C1995      C1996   1.417       .  A
C1995     Br2010   1.937       .  S
C1996      C1999   1.497       .  S
C1996      C1997   1.415       .  A
C1997      C1998   1.409       .  A
C1997     Br2005   1.927       .  S
C1998     Br2693   1.932       .  S
C1999      C2000   1.416       .  A
C1999      C2004   1.413       .  A
C2000      C2001   1.412       .  A
C2000     Br2011   1.930       .  S
C2001      C2002   1.409       .  A
C2001     Br2007   1.929       .  S
C2002      C2003   1.413       .  A
C2003      C2004   1.409       .  A
C2003     Br2012   1.930       .  S
C2004     Br2008   1.937       .  S
Br2009     C2682   1.932       .  S
C2013      C2014   1.411   1_455  A
C2014      C2015   1.405       .  A
C2014     Br2026   1.929       .  S
C2015      C2016   1.408   1_655  A
C2015     Br2030   1.924       .  S
C2016      C2019   1.487       .  S
C2017      C2018   1.406       .  A
C2017     Br2025   1.912       .  S
C2018     Br2029   1.927       .  S
C2019      C2020   1.410       .  A
C2019      C2024   1.409       .  A
C2020      C2021   1.408       .  A
C2021      C2022   1.412       .  A
C2022      C2023   1.410       .  A
C2023      C2024   1.406       .  A
C2023     Br2032   1.923       .  S
C2024     Br2028   1.932       .  S
C2033      C2034   1.407   1_565  A
C2033      C2722   1.404       .  A
C2034      C2035   1.399       .  A
C2034     Br2046   1.929       .  S
C2035      C2036   1.404   1_545  A
C2035     Br2050   1.917       .  S
C2036      C2039   1.479       .  S
C2036      C2721   1.406       .  A
C2037      C2720   1.406       .  A
C2037      C2038   1.405       .  A
C2037     Br2045   1.909       .  S
C2038      C2717   1.404       .  A
C2038     Br2049   1.928       .  S
C2039      C2040   1.407       .  A
C2039      C2044   1.408       .  A
C2040      C2041   1.406       .  A
C2040     Br2051   1.931       .  S
C2041      C2042   1.411       .  A
C2041     Br2047   1.923       .  S
C2042      C2043   1.411       .  A
C2043      C2044   1.405       .  A
C2043     Br2052   1.930   1_565  S
C2044     Br2048   1.931   1_565  S
O2053      C2056   1.264       .  A
O2053     Cd2058   2.556       .  S
C2054      O2063   1.270       .  A
C2054      O2059   1.265       .  A
C2054      C2334   1.513       .  S
O2055      C2061   1.264       .  A
O2055     Cd2058   2.546       .  S
C2056      O2064   1.266       .  A
C2056      C2131   1.507       .  S
C2057      O2062   1.263       .  A
C2057      O2060   1.262       .  A
C2057      C2208   1.508       .  S
Cd2058     O2065   2.490       .  S
Cd2058     O2064   2.501       .  S
Cd2058     O2063   2.520       .  S
Cd2058     O2059   2.546       .  S
Cd2058     O2062   2.580       .  S
Cd2058     O2060   2.527       .  S
C2061      O2065   1.270       .  A
C2061      C2403   1.502       .  S
N2066      C2071   1.346       .  A
N2066      C2070   1.345       .  A
N2066      H2098   1.040       .  S
N2067      C2074   1.355       .  A
N2068      C2073   1.363       .  A
N2068      C2072   1.362   1_655  A
N2068      H2099   1.039       .  S
N2069      C2076   1.352       .  A
C2070      C2078   1.388       .  A
C2070      C2086   1.403   1_655  A
C2071      C2087   1.403       .  A
C2071      C2079   1.387       .  A
C2072      C2080   1.388       .  A
C2073      C2081   1.387       .  A
C2074      C2086   1.409       .  A
C2075      C2089   1.420       .  A
C2075      C2083   1.393       .  A
C2076      C2087   1.403       .  A
C2077      C2085   1.392       .  A
C2077      C2088   1.414       .  A
C2078      C2079   1.373       .  A
C2078      H2090   1.082   1_655  S
C2079      H2091   1.082       .  S
C2080      C2081   1.389   1_455  A
C2082      C2083   1.374       .  A
C2082      H2094   1.082       .  S
C2083      H2095   1.082       .  S
C2084      C2085   1.370       .  A
C2084      H2096   1.083       .  S
C2085      H2097   1.082       .  S
C2086      C2697   1.485       .  S
C2087      C2717   1.476       .  S
C2088      C2378   1.501       .  S
C2089      C2360   1.500       .  S
C2100      S2101   1.800       .  S
S2101      C2102   1.799       .  S
C2102      C2103   1.354       .  D
C2102      C2657   1.498       .  S
C2103      C2637   1.488   1_565  S
C2105      S2109   1.792       .  S
C2105      C2106   1.351       .  D
C2105      C2677   1.492       .  S
C2106      C2726   1.487       .  S
C2108      S2109   1.800       .  S
N2110      C2115   1.364       .  A
N2110      C2114   1.364   1_565  A
N2110      H2142   1.041       .  S
N2111      C2119   1.352       .  A
N2112      C2117   1.346       .  A
N2112      C2116   1.348       .  A
N2112      H2143   1.042       .  S
N2113      C2121   1.354       .  A
C2114      C2122   1.388       .  A
C2115      C2123   1.388       .  A
C2116      C2124   1.383       .  A
C2116      C2133   1.404   1_565  A
C2117      C2132   1.407       .  A
C2117      C2125   1.390       .  A
C2118      C2130   1.413       .  A
C2118      C2126   1.392       .  A
C2119      C2133   1.403       .  A
C2120      C2128   1.394       .  A
C2120      C2131   1.423       .  A
C2121      C2132   1.408       .  A
C2122      C2123   1.390   1_545  A
C2124      C2125   1.369       .  A
C2124      H2136   1.081       .  S
C2125      H2137   1.081       .  S
C2126      C2127   1.375       .  A
C2126      H2138   1.082       .  S
C2127      H2139   1.083       .  S
C2128      C2129   1.371       .  A
C2128      H2140   1.077       .  S
C2129      H2141   1.081       .  S
C2130      C2304   1.500       .  S
C2132      C2617   1.483       .  S
C2133      C2646   1.486       .  S
C2144      S2148   1.795       .  S
C2146      C2147   1.351       .  D
C2146      C2626   1.485       .  S
C2147      S2148   1.793       .  S
C2147      C2597   1.488       .  S
C2149      C2150   1.350   1_455  D
C2149      C2706   1.491       .  S
C2150      S2151   1.786       .  S
C2150      C2586   1.481       .  S
S2151      C2152   1.794   1_655  S
N2154      C2159   1.348       .  A
N2154      C2158   1.348       .  A
N2154      H2186   1.042       .  S
N2155      C2162   1.352       .  A
N2155      C2163   1.347       .  A
N2156      C2161   1.364       .  A
N2156      C2160   1.366       .  A
N2156      H2187   1.041       .  S
N2157      C2164   1.358       .  A
N2157      C2165   1.351       .  A
C2158      C2166   1.387       .  A
C2158      C2174   1.406       .  A
C2159      C2175   1.408       .  A
C2159      C2167   1.388       .  A
C2160      C2168   1.387       .  A
C2160      C2177   1.438       .  A
C2161      C2176   1.439       .  A
C2161      C2169   1.389       .  A
C2162      C2174   1.405       .  A
C2162      C2170   1.382       .  A
C2163      C2177   1.415       .  A
C2163      C2171   1.392       .  A
C2164      C2172   1.381       .  A
C2164      C2175   1.415       .  A
C2165      C2173   1.392       .  A
C2165      C2176   1.425       .  A
C2166      C2167   1.373       .  A
C2166      H2178   1.082       .  S
C2167      H2179   1.082       .  S
C2168      C2169   1.388       .  A
C2168      H2180   1.081       .  S
C2169      H2181   1.081       .  S
C2170      C2171   1.374       .  A
C2170      H2182   1.083       .  S
C2171      H2183   1.083       .  S
C2172      C2173   1.378       .  A
C2172      H2184   1.082       .  S
C2173      H2185   1.082       .  S
C2174      C2577   1.483       .  S
C2175      C2686   1.497       .  S
C2176      C2365   1.511       .  S
C2177      C2371   1.508       .  S
N2188      C2193   1.365       .  A
N2188      C2192   1.364       .  A
N2188      H2220   1.040       .  S
N2189      C2196   1.351       .  A
N2189      C2197   1.356       .  A
N2190      C2195   1.349       .  A
N2190      C2194   1.349       .  A
N2190      H2221   1.042       .  S
N2191      C2198   1.345       .  A
N2191      C2199   1.352       .  A
C2192      C2200   1.388       .  A
C2192      C2208   1.439       .  A
C2193      C2209   1.440       .  A
C2193      C2201   1.388       .  A
C2194      C2202   1.389       .  A
C2194      C2211   1.407       .  A
C2195      C2210   1.406       .  A
C2195      C2203   1.382       .  A
C2196      C2208   1.426       .  A
C2196      C2204   1.393       .  A
C2197      C2211   1.411       .  A
C2197      C2205   1.378       .  A
C2198      C2206   1.392       .  A
C2198      C2209   1.415       .  A
C2199      C2207   1.381       .  A
C2199      C2210   1.404       .  A
C2200      C2201   1.388       .  A
C2200      H2212   1.082       .  S
C2201      H2213   1.081       .  S
C2202      C2203   1.368       .  A
C2202      H2214   1.081       .  S
C2203      H2215   1.078       .  S
C2204      C2205   1.375       .  A
C2204      H2216   1.078       .  S
C2205      H2217   1.081       .  S
C2206      C2207   1.377       .  A
C2206      H2218   1.082       .  S
C2207      H2219   1.083       .  S
C2209      C2301   1.504       .  S
C2210      C2606   1.491       .  S
C2211      C2666   1.491       .  S
C2224      C2225   1.351       .  D
C2224      C2526   1.491       .  S
C2225      C2506   1.487       .  S
C2227      C2228   1.351   1_545  D
C2227      C2546   1.492       .  S
C2228      C2557   1.485       .  S
N2232      C2237   1.352       .  A
N2232      C2236   1.348       .  A
N2232      H2264   1.039       .  S
N2233      C2240   1.354       .  A
N2233      C2241   1.353       .  A
N2234      C2239   1.360       .  A
N2234      C2238   1.362       .  A
N2234      H2265   1.039       .  S
C2236      C2244   1.387       .  A
C2236      C2252   1.409       .  A
C2237      C2253   1.413       .  A
C2237      C2245   1.388       .  A
C2238      C2246   1.387       .  A
C2238      C2255   1.434       .  A
C2240      C2252   1.410       .  A
C2240      C2248   1.382       .  A
C2241      C2255   1.422       .  A
C2241      C2249   1.391       .  A
C2242      C2250   1.380       .  A
C2243      C2251   1.393       .  A
C2243      C2254   1.421       .  A
C2244      C2245   1.365       .  A
C2244      H2256   1.082       .  S
C2245      H2257   1.078       .  S
C2246      H2258   1.082       .  S
C2247      H2259   1.082       .  S
C2248      C2249   1.373       .  A
C2248      H2260   1.083       .  S
C2249      H2261   1.082       .  S
C2250      C2251   1.368       .  A
C2250      H2262   1.082       .  S
C2251      H2263   1.081       .  S
C2252      C2486   1.483       .  S
C2253      C2517   1.494       .  S
C2254      C2373   1.493       .  S
C2255      C2358   1.503       .  S
N2266      C2271   1.351       .  A
N2266      C2270   1.351       .  A
N2266      H2298   1.035       .  S
N2267      C2274   1.356       .  A
N2267      C2275   1.352       .  A
N2268      C2273   1.362       .  A
N2268      C2272   1.363   1_655  A
N2268      H2299   1.034       .  S
N2269      C2276   1.356       .  A
N2269      C2277   1.351       .  A
C2270      C2278   1.385       .  A
C2270      C2286   1.408   1_655  A
C2271      C2287   1.415       .  A
C2271      C2279   1.389       .  A
C2272      C2280   1.388       .  A
C2272      C2289   1.436       .  A
C2273      C2288   1.433       .  A
C2273      C2281   1.386   1_655  A
C2274      C2286   1.410       .  A
C2275      C2289   1.424       .  A
C2276      C2284   1.381       .  A
C2276      C2287   1.410       .  A
C2277      C2285   1.393       .  A
C2277      C2288   1.422       .  A
C2278      C2279   1.361       .  A
C2278      H2290   1.082       .  S
C2279      H2291   1.076       .  S
C2280      C2281   1.386       .  A
C2280      H2292   1.082       .  S
C2281      H2293   1.082   1_455  S
C2282      C2283   1.374       .  A
C2282      H2294   1.082       .  S
C2283      H2295   1.082       .  S
C2284      C2285   1.367       .  A
C2284      H2296   1.082       .  S
C2285      H2297   1.081       .  S
C2286      C2497   1.491       .  S
C2287      C2466   1.492       .  S
C2288      C2374   1.497       .  S
O2300      C2303   1.264       .  A
O2300     Cd2305   2.532       .  S
C2301      O2310   1.268       .  A
C2301      O2306   1.264       .  A
O2302      C2308   1.263       .  A
O2302     Cd2305   2.537       .  S
C2303      O2311   1.265       .  A
C2303      C2333   1.493       .  S
C2304      O2309   1.269       .  A
C2304      O2307   1.265       .  A
Cd2305     O2312   2.478       .  S
Cd2305     O2311   2.488       .  S
Cd2305     O2310   2.479       .  S
Cd2305     O2306   2.556       .  S
Cd2305     O2309   2.459       .  S
Cd2305     O2307   2.556       .  S
C2308      O2312   1.266       .  A
C2308      C2404   1.497       .  S
N2313      C2318   1.365       .  A
N2313      H2345   1.041   1_565  S
N2314      C2321   1.347       .  A
N2314      C2322   1.354       .  A
N2315      C2320   1.347       .  A
N2315      C2319   1.350       .  A
N2315      H2346   1.042       .  S
N2316      C2323   1.349       .  A
N2316      C2324   1.353       .  A
C2317      C2325   1.386       .  A
C2317      C2333   1.433       .  A
C2318      C2334   1.439       .  A
C2318      C2326   1.389       .  A
C2319      C2327   1.387       .  A
C2319      C2336   1.407   1_565  A
C2320      C2335   1.410       .  A
C2320      C2328   1.389       .  A
C2321      C2333   1.420       .  A
C2321      C2329   1.394       .  A
C2322      C2330   1.379       .  A
C2323      C2331   1.389       .  A
C2323      C2334   1.418       .  A
C2324      C2332   1.385       .  A
C2324      C2335   1.413       .  A
C2325      H2337   1.082       .  S
C2326      H2338   1.081       .  S
C2327      C2328   1.374       .  A
C2327      H2339   1.082       .  S
C2328      H2340   1.083       .  S
C2329      C2330   1.373       .  A
C2329      H2341   1.078       .  S
C2330      H2342   1.083       .  S
C2331      C2332   1.380       .  A
C2331      H2343   1.082       .  S
C2332      H2344   1.083       .  S
C2335      C2446   1.494       .  S
C2336      C2537   1.489       .  S
C2347      S2348   1.795       .  S
C2347      S2351   1.798       .  S
C2347      C2355   1.348   1_556  D
S2348      C2349   1.790       .  S
C2349      C2350   1.349       .  D
C2349      C2477   1.484       .  S
C2350      S2351   1.789       .  S
C2350      C2457   1.486       .  S
C2352      S2356   1.801       .  S
C2352      C2353   1.369       .  D
C2352      C2437   1.520       .  S
C2353      S2354   1.799       .  S
C2353      C2417   1.492       .  S
S2354      C2355   1.785       .  S
C2355      S2356   1.783       .  S
O2357      C2360   1.263       .  A
O2357     Cd2362   2.571       .  S
C2358      O2367   1.264       .  A
C2358      O2363   1.262       .  A
O2359      C2365   1.265       .  A
O2359     Cd2362   2.482       .  S
C2360      O2368   1.264       .  A
C2361      O2366   1.267       .  A
C2361      O2364   1.269       .  A
Cd2362     O2369   2.584       .  S
Cd2362     O2368   2.474       .  S
Cd2362     O2367   2.516       .  S
Cd2362     O2363   2.560       .  S
Cd2362     O2366   2.542       .  S
Cd2362     O2364   2.482       .  S
C2365      O2369   1.267       .  A
O2370      C2373   1.266       .  A
O2370     Cd2375   2.525       .  S
C2371      O2380   1.266       .  A
C2371      O2376   1.268       .  A
O2372      C2378   1.262       .  A
O2372     Cd2375   2.553       .  S
C2373      O2381   1.268       .  A
C2374      O2379   1.262       .  A
C2374      O2377   1.263       .  A
Cd2375     O2382   2.472       .  S
Cd2375     O2381   2.448       .  S
Cd2375     O2380   2.577       .  S
Cd2375     O2376   2.466       .  S
Cd2375     O2379   2.552       .  S
Cd2375     O2377   2.487       .  S
C2378      O2382   1.268       .  A
N2383      C2388   1.360       .  A
N2383      C2387   1.364       .  A
N2383      H2415   1.037       .  S
N2384      C2392   1.352       .  A
N2385      C2390   1.352       .  A
N2385      C2389   1.350       .  A
N2385      H2416   1.039       .  S
N2386      C2393   1.351       .  A
N2386      C2394   1.357       .  A
C2387      C2395   1.387       .  A
C2388      C2404   1.433       .  A
C2388      C2396   1.388       .  A
C2389      C2397   1.386       .  A
C2389      C2406   1.410       .  A
C2390      C2405   1.414       .  A
C2390      C2398   1.389       .  A
C2391      C2403   1.417       .  A
C2391      C2399   1.391       .  A
C2392      C2406   1.405       .  A
C2393      C2401   1.392       .  A
C2393      C2404   1.423       .  A
C2394      C2402   1.381       .  A
C2394      C2405   1.412       .  A
C2395      C2396   1.387       .  A
C2396      H2408   1.082       .  S
C2397      C2398   1.367       .  A
C2397      H2409   1.082       .  S
C2398      H2410   1.079       .  S
C2399      C2400   1.370       .  A
C2399      H2411   1.082       .  S
C2400      H2412   1.083       .  S
C2401      C2402   1.368       .  A
C2401      H2413   1.081       .  S
C2402      H2414   1.082       .  S
C2405      C2426   1.495       .  S
C2406      C2566   1.484       .  S
C2417      C2418   1.415       .  A
C2417      C2422   1.408       .  A
C2418      C2419   1.410       .  A
C2418     Br2430   1.935       .  S
C2419      C2420   1.408       .  A
C2419     Br2434   1.921       .  S
C2420      C2423   1.493       .  S
C2420      C2421   1.415       .  A
C2421      C2422   1.411       .  A
C2421     Br2429   1.930       .  S
C2422     Br2433   1.927       .  S
C2423      C2424   1.410       .  A
C2423      C2428   1.410       .  A
C2424      C2425   1.409       .  A
C2424     Br2435   1.924       .  S
C2425      C2426   1.410       .  A
C2425     Br2431   1.925       .  S
C2426      C2427   1.410       .  A
C2427      C2428   1.406       .  A
C2427     Br2436   1.929       .  S
C2428     Br2432   1.921       .  S
C2437      C2438   1.435       .  A
C2437      C2442   1.403       .  A
C2438      C2439   1.418       .  A
C2438     Br2450   1.930       .  S
C2439      C2440   1.414       .  A
C2439     Br2454   1.932       .  S
C2440      C2443   1.494       .  S
C2440      C2441   1.398       .  A
C2441      C2442   1.390       .  A
C2441     Br2449   1.918       .  S
C2442     Br2453   1.916       .  S
C2443      C2444   1.421       .  A
C2443      C2448   1.412       .  A
C2444      C2445   1.406       .  A
C2444     Br2455   1.935       .  S
C2445      C2446   1.410       .  A
C2445     Br2451   1.933       .  S
C2446      C2447   1.415       .  A
C2447      C2448   1.405       .  A
C2447     Br2456   1.932       .  S
C2448     Br2452   1.932       .  S
C2457      C2458   1.407       .  A
C2457      C2462   1.409       .  A
C2458      C2459   1.406       .  A
C2458     Br2470   1.925       .  S
C2459      C2460   1.412       .  A
C2459     Br2474   1.928       .  S
C2460      C2463   1.486       .  S
C2460      C2461   1.408       .  A
C2461      C2462   1.406       .  A
C2461     Br2469   1.923       .  S
C2462     Br2473   1.930       .  S
C2463      C2464   1.412       .  A
C2463      C2468   1.410       .  A
C2464      C2465   1.405       .  A
C2464     Br2475   1.929       .  S
C2465      C2466   1.406       .  A
C2465     Br2471   1.926       .  S
C2466      C2467   1.411       .  A
C2467      C2468   1.407       .  A
C2467     Br2476   1.929       .  S
C2468     Br2472   1.926       .  S
C2477      C2478   1.408       .  A
C2477      C2482   1.411       .  A
C2478      C2479   1.404       .  A
C2478     Br2490   1.923       .  S
C2479      C2480   1.408       .  A
C2479     Br2494   1.929       .  S
C2480      C2483   1.479       .  S
C2480      C2481   1.407       .  A
C2481      C2482   1.405       .  A
C2481     Br2489   1.926       .  S
C2482     Br2493   1.931       .  S
C2483      C2484   1.407       .  A
C2483      C2488   1.407       .  A
C2484      C2485   1.404       .  A
C2484     Br2495   1.923       .  S
C2485      C2486   1.407       .  A
C2485     Br2491   1.926       .  S
C2486      C2487   1.410       .  A
C2487      C2488   1.403       .  A
C2487     Br2496   1.931       .  S
C2488     Br2492   1.926       .  S
C2497      C2498   1.411   1_455  A
C2497      C2502   1.410       .  A
C2498      C2499   1.405       .  A
C2498     Br2510   1.930       .  S
C2499      C2500   1.408   1_655  A
C2499     Br2514   1.928       .  S
C2500      C2503   1.487       .  S
C2500      C2501   1.408       .  A
C2501      C2502   1.409       .  A
C2503      C2504   1.408   1_455  A
C2503      C2508   1.409       .  A
C2504      C2505   1.407       .  A
C2505      C2506   1.411       .  A
C2506      C2507   1.409   1_655  A
C2507      C2508   1.406       .  A
C2508     Br2512   1.928       .  S
C2517      C2518   1.411       .  A
C2518      C2519   1.408       .  A
C2518     Br2530   1.928       .  S
C2519      C2520   1.408       .  A
C2519     Br2534   1.922       .  S
C2520      C2523   1.490       .  S
C2521      C2522   1.408       .  A
C2521     Br2529   1.923       .  S
C2522     Br2533   1.923       .  S
C2523      C2524   1.408       .  A
C2523      C2528   1.411       .  A
C2524      C2525   1.408       .  A
C2524     Br2535   1.920       .  S
C2525      C2526   1.410       .  A
C2525     Br2531   1.930       .  S
C2526      C2527   1.409       .  A
C2527      C2528   1.407       .  A
C2527     Br2536   1.925       .  S
C2528     Br2532   1.929       .  S
C2537      C2542   1.407       .  A
C2538      C2539   1.406       .  A
C2538     Br2550   1.926       .  S
C2539     Br2554   1.928       .  S
C2540      C2543   1.494       .  S
C2540      C2541   1.415       .  A
C2541      C2542   1.410       .  A
C2541     Br2549   1.926       .  S
C2542     Br2553   1.928   1_545  S
C2543      C2544   1.412       .  A
C2544      C2545   1.410       .  A
C2544     Br2555   1.925       .  S
C2545      C2546   1.410       .  A
C2545     Br2551   1.929       .  S
C2547      C2548   1.407       .  A
C2547     Br2556   1.927       .  S
C2548     Br2552   1.940       .  S
C2557      C2558   1.409       .  A
C2557      C2562   1.406       .  A
C2558      C2559   1.408       .  A
C2559      C2560   1.413       .  A
C2560      C2563   1.488       .  S
C2560      C2561   1.412       .  A
C2561      C2562   1.405       .  A
C2561     Br2569   1.929       .  S
C2563      C2568   1.410       .  A
C2564      C2565   1.405       .  A
C2564     Br2575   1.912       .  S
C2565     Br2571   1.927       .  S
C2566      C2567   1.406       .  A
C2567      C2568   1.402       .  A
C2567     Br2576   1.931       .  S
C2568     Br2572   1.916       .  S
C2577      C2578   1.407       .  A
C2577      C2582   1.406       .  A
C2578      C2579   1.404       .  A
C2578     Br2590   1.929       .  S
C2579      C2580   1.413       .  A
C2579     Br2594   1.935       .  S
C2580      C2583   1.486       .  S
C2580      C2581   1.412       .  A
C2581      C2582   1.406       .  A
C2581     Br2589   1.924       .  S
C2582     Br2593   1.930       .  S
C2583      C2584   1.414       .  A
C2583      C2588   1.413       .  A
C2584      C2585   1.404       .  A
C2584     Br2595   1.934       .  S
C2585      C2586   1.406       .  A
C2585     Br2591   1.926       .  S
C2586      C2587   1.407       .  A
C2587      C2588   1.405       .  A
C2587     Br2596   1.933       .  S
C2588     Br2592   1.925       .  S
C2597      C2598   1.406       .  A
C2597      C2602   1.412       .  A
C2598      C2599   1.401       .  A
C2598     Br2610   1.925       .  S
C2599      C2600   1.413       .  A
C2599     Br2614   1.926       .  S
C2600      C2603   1.491       .  S
C2600      C2601   1.409       .  A
C2601      C2602   1.410       .  A
C2601     Br2609   1.923       .  S
C2602     Br2613   1.928       .  S
C2603      C2604   1.415       .  A
C2603      C2608   1.411       .  A
C2604      C2605   1.410       .  A
C2604     Br2615   1.930       .  S
C2605      C2606   1.410       .  A
C2605     Br2611   1.928       .  S
C2606      C2607   1.411       .  A
C2607      C2608   1.405       .  A
C2607     Br2616   1.931       .  S
C2608     Br2612   1.934       .  S
C2617      C2618   1.406       .  A
C2617      C2622   1.409       .  A
C2618      C2619   1.404       .  A
C2618     Br2630   1.930       .  S
C2619      C2620   1.409       .  A
C2619     Br2634   1.920       .  S
C2620      C2623   1.483       .  S
C2620      C2621   1.410       .  A
C2621      C2622   1.405       .  A
C2622     Br2633   1.929       .  S
C2623      C2628   1.411       .  A
C2624      C2625   1.406       .  A
C2624     Br2635   1.927       .  S
C2625     Br2631   1.925       .  S
C2626      C2627   1.410       .  A
C2627      C2628   1.405       .  A
C2627     Br2636   1.931       .  S
C2628     Br2632   1.931       .  S
C2637      C2642   1.406   1_545  A
C2638      C2639   1.409       .  A
C2638     Br2650   1.930       .  S
C2639     Br2654   1.922       .  S
C2640      C2643   1.486       .  S
C2640      C2641   1.411   1_545  A
C2641      C2642   1.400       .  A
C2641     Br2649   1.930       .  S
C2642     Br2653   1.924       .  S
C2643      C2644   1.410       .  A
C2643      C2648   1.413       .  A
C2644      C2645   1.403       .  A
C2645      C2646   1.410       .  A
C2646      C2647   1.409       .  A
C2647      C2648   1.408       .  A
C2647     Br2656   1.929       .  S
C2648     Br2652   1.930       .  S
C2657      C2658   1.412       .  A
C2657      C2662   1.413       .  A
C2658      C2659   1.411       .  A
C2658     Br2670   1.925   1_565  S
C2659      C2660   1.411       .  A
C2659     Br2674   1.929       .  S
C2660      C2663   1.496       .  S
C2660      C2661   1.412       .  A
C2661      C2662   1.410       .  A
C2661     Br2669   1.929       .  S
C2662     Br2673   1.931       .  S
C2663      C2664   1.411       .  A
C2663      C2668   1.413       .  A
C2664      C2665   1.406       .  A
C2664     Br2675   1.918       .  S
C2665      C2666   1.406       .  A
C2665     Br2671   1.930       .  S
C2666      C2667   1.411       .  A
C2667      C2668   1.411       .  A
C2667     Br2676   1.927       .  S
C2668     Br2672   1.930       .  S
C2677      C2678   1.408       .  A
C2677      C2682   1.409       .  A
C2678      C2679   1.408       .  A
C2678     Br2690   1.925       .  S
C2679      C2680   1.417       .  A
C2679     Br2694   1.937       .  S
C2680      C2683   1.497       .  S
C2680      C2681   1.415       .  A
C2681      C2682   1.409       .  A
C2681     Br2689   1.927       .  S
C2683      C2684   1.416       .  A
C2683      C2688   1.413       .  A
C2684      C2685   1.412       .  A
C2684     Br2695   1.930       .  S
C2685      C2686   1.410       .  A
C2685     Br2691   1.929       .  S
C2686      C2687   1.413       .  A
C2687      C2688   1.409       .  A
C2687     Br2696   1.930       .  S
C2688     Br2692   1.937       .  S
C2697      C2698   1.411   1_455  A
C2698      C2699   1.405       .  A
C2698     Br2710   1.929       .  S
C2699      C2700   1.408   1_655  A
C2699     Br2714   1.924       .  S
C2700      C2703   1.487       .  S
C2701      C2702   1.406       .  A
C2701     Br2709   1.913       .  S
C2702     Br2713   1.927       .  S
C2703      C2704   1.410       .  A
C2703      C2708   1.409       .  A
C2704      C2705   1.408       .  A
C2705      C2706   1.412       .  A
C2706      C2707   1.410       .  A
C2707      C2708   1.407       .  A
C2707     Br2716   1.923       .  S
C2708     Br2712   1.932       .  S
C2717      C2718   1.407       .  A
C2718      C2719   1.399       .  A
C2718     Br2730   1.929       .  S
C2719      C2720   1.404       .  A
C2719     Br2734   1.917       .  S
C2720      C2723   1.479       .  S
C2721      C2722   1.405       .  A
C2721     Br2729   1.908       .  S
C2722     Br2733   1.928       .  S
C2723      C2724   1.407       .  A
C2723      C2728   1.408       .  A
C2724      C2725   1.406       .  A
C2724     Br2735   1.931       .  S
C2725      C2726   1.411       .  A
C2725     Br2731   1.923       .  S
C2726      C2727   1.411       .  A
C2727      C2728   1.405       .  A
C2727     Br2736   1.930       .  S
C2728     Br2732   1.931       .  S
