geometry optimzed in LAMMPS
_audit_creation_date              2020-11-30 
_audit_creation_method            'lammps2cif' 
_symmetry_space_group_name_H-M    'P1' 
_symmetry_Int_Tables_number       1 
_symmetry_cell_setting            triclinic 
loop_ 
_symmetry_equiv_pos_as_xyz 
  x,y,z 
_cell_length_a                    35.35935467 
_cell_length_b                    35.36832946370231 
_cell_length_c                    38.489076752959114 
_cell_angle_alpha                 89.9439913916685 
_cell_angle_beta                  90.03975830325905 
_cell_angle_gamma                 120.0485895128976 
loop_ 
_atom_site_label 
_atom_site_type_symbol 
_atom_site_fract_x 
_atom_site_fract_y 
_atom_site_fract_z 
_atom_site_charge 
C1          C  0.22419971  0.26576513  0.04026607     0.85800
C2          C  0.19226773  0.22535069  0.06106258    -0.54500
C3          C  0.21193347  0.20685032  0.07961737     0.08700
C4          C  0.26215355  0.22998039  0.07470136     0.19700
C5          C  0.25755520  0.29644653  0.06701419    -0.55200
C6          C  0.27817582  0.27814455  0.08487590     0.08800
C7          C  0.24998581  0.25130128  0.01812789    -0.54700
C8          C  0.26883898  0.23170184  0.03510761     0.09400
H9          H  0.15742434  0.21356032  0.06241386     0.13900
H10         H  0.27808877  0.21459290  0.08925027    -0.00400
H11         H  0.26541836  0.33008819  0.07047942     0.14200
H12         H  0.25466029  0.25787730  0.99097674     0.14000
C13         C  0.03609040  0.27071301  0.04040911     0.85800
C14         C  0.02792105  0.30245987  0.06168106    -0.54500
C15         C  0.48965809  0.28269189  0.08018255     0.08700
C16         C  0.46234031  0.23258431  0.07486014     0.19700
C17         C  0.03318724  0.23682565  0.06674069    -0.55200
C18         C  0.49431729  0.21619769  0.08469512     0.08800
C19         C  0.49578778  0.24563526  0.01820902    -0.54700
C20         C  0.45738544  0.22667458  0.03520501     0.09400
H21         H  0.05110049  0.33726227  0.06317450     0.13900
H22         H  0.43098488  0.21656948  0.08936828    -0.00400
H23         H  0.05886740  0.22877246  0.06996587     0.14200
H24         H  0.49756403  0.24186810  0.99088602     0.14000
C25         C  0.22925758  0.45938394  0.04032144     0.85800
C26         C  0.26915976  0.46740535  0.06166413    -0.54500
C27         C  0.28760919  0.00548739  0.08034200     0.08700
C28         C  0.26493658  0.03288867  0.07505101     0.19700
C29         C  0.19824460  0.46207438  0.06665620    -0.55200
C30         C  0.21652852  0.00077590  0.08474475     0.08800
C31         C  0.24457558  0.49990083  0.01828179    -0.54700
C32         C  0.26411885  0.03823704  0.03539506     0.09400
H33         H  0.28070472  0.44418958  0.06317629     0.13900
H34         H  0.28024514  0.06409373  0.08974504    -0.00400
H35         H  0.16447710  0.43637361  0.06982968     0.14200
H36         H  0.23877399  0.49829913  0.99103494     0.14000
Fe37       Fe  0.13224628  0.36512240  0.96668050     1.65800
Fe38       Fe  0.22706539  0.36294592  0.96684692     1.73200
Fe39       Fe  0.12999427  0.26797535  0.96670326     1.54400
O40         O  0.08330685  0.26403207  0.00060026    -0.82400
O41         O  0.22921951  0.32825652  0.92399677    -0.80700
O42         O  0.09464238  0.33110820  0.00961286    -0.84900
O43         O  0.08487374  0.32349454  0.93277284    -0.79700
O44         O  0.16380371  0.26410447  0.00962537    -0.81500
O45         O  0.23295762  0.41039796  0.93295312    -0.84300
C46         C  0.07539867  0.28851377  0.91692728     0.96500
C47         C  0.07516909  0.29047241  0.01656258     1.03900
O48         O  0.16309856  0.33201055  0.96677759    -1.13200
O49         O  0.23075996  0.40061092  0.00970744    -0.75700
O50         O  0.17506402  0.41198258  0.00057769    -0.79200
O51         O  0.09335075  0.26597388  0.92369453    -0.79900
C52         C  0.20976489  0.42025367  0.01649654     0.95400
O53         O  0.16695148  0.40197058  0.92377856    -0.77800
O54         O  0.23086339  0.32010848  0.00082159    -0.83000
C55         C  0.20679680  0.28770716  0.91733181     0.98000
C56         C  0.20444432  0.28525372  0.01656657     1.03900
O57         O  0.17165527  0.26214626  0.93299850    -0.78600
C58         C  0.20750755  0.42000887  0.91714468     1.02200
C59         C  0.13818681  0.14889255  0.15552443     0.02400
C60         C  0.13802149  0.10909681  0.15600567    -0.13700
C61         C  0.16277759  0.10006783  0.13160608    -0.00100
C62         C  0.18738962  0.13305796  0.10654942    -0.12300
C63         C  0.18731707  0.17268840  0.10604031     0.02400
C64         C  0.16280398  0.18022715  0.13055222    -0.11700
H65         H  0.11940977  0.08657393  0.17641172     0.08000
H66         H  0.20610030  0.12868085  0.08653215     0.05500
H67         H  0.16298503  0.21098749  0.13024893     0.05400
C68         C  0.19091920  0.01004571  0.11045038     0.02400
C69         C  0.16413683  0.47746903  0.13388711    -0.13700
C70         C  0.13692009  0.48351207  0.15667067    -0.00100
C71         C  0.13553547  0.02250191  0.15524583    -0.12300
C72         C  0.16319116  0.05714849  0.13242371     0.02400
C73         C  0.19132626  0.04996078  0.11040339    -0.11700
H74         H  0.16433191  0.44691323  0.13427521     0.08000
H75         H  0.11310838  0.02503795  0.17266371     0.05500
H76         H  0.21327630  0.07432486  0.09234629     0.05400
C77         C  0.47991854  0.30724128  0.10648672     0.02400
C78         C  0.01228888  0.33242316  0.13056294    -0.13700
C79         C  0.00577723  0.35732596  0.15528193    -0.00100
C80         C  0.46607759  0.35745996  0.15575030    -0.12300
C81         C  0.43175945  0.33182850  0.13188152     0.02400
C82         C  0.43986776  0.30656334  0.10729348    -0.11700
H83         H  0.04298337  0.33244996  0.13018234     0.08000
H84         H  0.46253152  0.37671224  0.17575266     0.05500
H85         H  0.41629987  0.28688339  0.08784997     0.05400
C86         C  0.34068700  0.35739258  0.15689533     0.02400
C87         C  0.30744829  0.33025679  0.13406824    -0.13700
C88         C  0.31325290  0.30363676  0.11057154    -0.00100
C89         C  0.35291841  0.30340236  0.11043553    -0.12300
C90         C  0.38822108  0.33124834  0.13271628     0.02400
C91         C  0.38104218  0.35859658  0.15572008    -0.11700
H92         H  0.27668681  0.33005987  0.13443645     0.08000
H93         H  0.35549994  0.28190485  0.09205638     0.05500
H94         H  0.40582384  0.38064502  0.17346539     0.05400
C95         C  0.28945180  0.39856097  0.22442355     0.85800
C96         C  0.29601662  0.43582190  0.20036517    -0.54500
C97         C  0.33463019  0.45413898  0.18214339     0.08700
C98         C  0.36297530  0.43268831  0.18973482     0.19700
C99         C  0.29347476  0.36594168  0.20071262    -0.55200
C100        C  0.33187655  0.38358655  0.18236267     0.08800
C101        C  0.33011108  0.41847594  0.24662770    -0.54700
C102        C  0.36833493  0.43500872  0.22946067     0.09400
H103        H  0.27240645  0.44676770  0.19784804     0.13900
H104        H  0.39420848  0.44736805  0.17508972    -0.00400
H105        H  0.26824660  0.33180320  0.19879658     0.14200
H106        H  0.32876618  0.42156219  0.27404573     0.14000
C107        C  0.10402027  0.20482043  0.22402208     0.85800
C108        C  0.13479794  0.19814086  0.20016640    -0.54500
C109        C  0.11438984  0.15955579  0.18191795     0.08700
C110        C  0.06459309  0.13119336  0.18944536     0.19700
C111        C  0.06752209  0.20075866  0.20004248    -0.55200
C112        C  0.04673330  0.16229832  0.18178175     0.08800
C113        C  0.08306813  0.16419727  0.24628336    -0.54700
C114        C  0.06148180  0.12590930  0.22919550     0.09400
H115        H  0.16938278  0.22174462  0.19762195     0.13900
H116        H  0.04804634  0.09993731  0.17484111    -0.00400
H117        H  0.05872806  0.22602431  0.19788757     0.14200
H118        H  0.08736152  0.16565052  0.27371624     0.14000
C119        C  0.09567232  0.39075909  0.22401474     0.85800
C120        C  0.05860061  0.36038752  0.19967167    -0.54500
C121        C  0.04041425  0.38098442  0.18164187     0.08700
C122        C  0.06170280  0.43059994  0.18972003     0.19700
C123        C  0.12839750  0.42782357  0.20059436    -0.55200
C124        C  0.11081676  0.44870220  0.18236706     0.08800
C125        C  0.07540153  0.41091510  0.24642504    -0.54700
C126        C  0.05896222  0.43286353  0.22949922     0.09400
H127        H  0.04772539  0.32588307  0.19679570     0.13900
H128        H  0.04709190  0.44732746  0.17522807    -0.00400
H129        H  0.16250968  0.43669706  0.19857588     0.14200
H130        H  0.07182586  0.40565194  0.27375951     0.14000
Fe131      Fe  0.19551307  0.30051242  0.29803549     1.65800
Fe132      Fe  0.09924638  0.29872743  0.29745587     1.73200
Fe133      Fe  0.19374054  0.39492671  0.29778966     1.54400
O134        O  0.24280819  0.40007175  0.33012970    -0.82400
O135        O  0.09640093  0.33058606  0.25299888    -0.80700
O136        O  0.22962247  0.33299066  0.34244453    -0.84900
O137        O  0.24418789  0.34564969  0.26598564    -0.79700
O138        O  0.16128276  0.39683122  0.34196909    -0.81500
O139        O  0.09604965  0.25023792  0.26526858    -0.84300
C140        C  0.25046941  0.37875488  0.24837224     0.96500
C141        C  0.25019513  0.37391374  0.34752584     1.03900
O142        O  0.16282359  0.33136376  0.29777009    -1.13200
O143        O  0.09699372  0.26422539  0.34174393    -0.75700
O144        O  0.15122155  0.25132422  0.33004490    -0.79200
O145        O  0.22877989  0.39797454  0.25356276    -0.79900
C146        C  0.11735699  0.24372731  0.34703778     0.95400
O147        O  0.16392372  0.26546858  0.25358953    -0.77800
O148        O  0.09412893  0.34298475  0.32959488    -0.83000
C149        C  0.11558480  0.37151617  0.24782885     0.98000
C150        C  0.12035651  0.37663488  0.34693510     1.03900
O151        O  0.14867928  0.39832737  0.26547946    -0.78600
C152        C  0.12304240  0.24386804  0.24799204     1.02200
C153        C  0.01171555  0.15340722  0.15625054     0.02400
C154        C  0.47251402  0.11306418  0.15516865    -0.13700
C155        C  0.43757272  0.10619862  0.13274672    -0.00100
C156        C  0.44469735  0.14167831  0.11078040    -0.12300
C157        C  0.48486923  0.18110081  0.11040859     0.02400
C158        C  0.01766404  0.18668314  0.13349984    -0.11700
H159        H  0.46996638  0.08804266  0.17257485     0.08000
H160        H  0.42008433  0.13943519  0.09308625     0.05500
H161        H  0.04834657  0.21736466  0.13370347     0.05400
C162        C  0.32159236  0.01495849  0.10690300     0.02400
C163        C  0.31393386  0.48278899  0.13136234    -0.13700
C164        C  0.34544143  0.48910721  0.15605171    -0.00100
C165        C  0.38543251  0.02876783  0.15648782    -0.12300
C166        C  0.39445513  0.06282334  0.13222581     0.02400
C167        C  0.36134035  0.05460466  0.10736063    -0.11700
H168        H  0.28303104  0.45229725  0.13108144     0.08000
H169        H  0.40816937  0.03249672  0.17666137     0.05500
H170        H  0.36578288  0.07775188  0.08734510     0.05400
C171        C  0.43754686  0.37184301  0.55718070     0.85800
C172        C  0.46841199  0.36472436  0.53370742    -0.54500
C173        C  0.44798859  0.32610748  0.51544240     0.08700
C174        C  0.39802884  0.29821797  0.52254403     0.19700
C175        C  0.40156412  0.36816912  0.53282923    -0.55200
C176        C  0.38068183  0.32974743  0.51452394     0.08800
C177        C  0.41588180  0.33123152  0.57941046    -0.54700
C178        C  0.39436049  0.29295212  0.56230915     0.09400
H179        H  0.00307872  0.38812521  0.53137770     0.13900
H180        H  0.38141541  0.26696748  0.50794023    -0.00400
H181        H  0.39299054  0.39358986  0.53062520     0.14200
H182        H  0.41948087  0.33266526  0.60689407     0.14000
C183        C  0.42851114  0.05769918  0.55711599     0.85800
C184        C  0.39037737  0.02685239  0.53370809    -0.54500
C185        C  0.37221048  0.04732126  0.51549077     0.08700
C186        C  0.39433515  0.09720451  0.52252632     0.19700
C187        C  0.46079593  0.09360773  0.53268289    -0.55200
C188        C  0.44315294  0.11440224  0.51435661     0.08800
C189        C  0.40978904  0.07951138  0.57933815    -0.54700
C190        C  0.39289428  0.10092736  0.56227867     0.09400
H191        H  0.37908571  0.49221038  0.53129441     0.13900
H192        H  0.37964253  0.11377211  0.50791511    -0.00400
H193        H  0.49477170  0.10210110  0.53035402     0.14200
H194        H  0.40793598  0.07614363  0.60679877     0.14000
C195        C  0.12262096  0.06611922  0.55712718     0.85800
C196        C  0.12993870  0.10423860  0.53372158    -0.54500
C197        C  0.16860348  0.12240312  0.51553708     0.08700
C198        C  0.19635924  0.10027892  0.52268499     0.19700
C199        C  0.12620836  0.03382575  0.53274670    -0.55200
C200        C  0.16472495  0.05145010  0.51451885     0.08800
C201        C  0.16314739  0.08486398  0.57947636    -0.54700
C202        C  0.20150609  0.10171105  0.56243742     0.09400
H203        H  0.10660403  0.11554332  0.53129579     0.13900
H204        H  0.22765937  0.11497817  0.50813502    -0.00400
H205        H  0.10067635  0.49985319  0.53040885     0.14200
H206        H  0.16156346  0.08683051  0.60684953     0.14000
Fe207      Fe  0.02895804  0.46780946  0.63109180     1.65800
Fe208      Fe  0.43267528  0.46582806  0.63070183     1.73200
Fe209      Fe  0.02704734  0.06205961  0.63084263     1.54400
O210        O  0.07679260  0.06738361  0.66277532    -0.82400
O211        O  0.42961717  0.49759039  0.58616178    -0.80700
O212        O  0.06301343  0.50027201  0.67562286    -0.84900
O213        O  0.07754880  0.01321959  0.59892290    -0.79700
O214        O  0.49480710  0.06359930  0.67542306    -0.81500
O215        O  0.42951230  0.41717532  0.59860177    -0.84300
C216        C  0.08356837  0.04615788  0.58113289     0.96500
C217        C  0.08399063  0.04124558  0.68045727     1.03900
O218        O  0.49620947  0.49854100  0.63083959    -1.13200
O219        O  0.43074231  0.43171678  0.67519775    -0.75700
O220        O  0.48458982  0.41839376  0.66317197    -0.79200
O221        O  0.06157751  0.06509239  0.58622487    -0.79900
C222        C  0.45096461  0.41107503  0.68045840     0.95400
O223        O  0.49743337  0.43284690  0.58657269    -0.77800
O224        O  0.42757471  0.01008823  0.66280115    -0.83000
C225        C  0.44850383  0.03855551  0.58111380     0.98000
C226        C  0.45384611  0.04343340  0.68041961     1.03900
O227        O  0.48152500  0.06541758  0.59885616    -0.78600
C228        C  0.45652361  0.41093689  0.58118499     1.02200
C229        C  0.17350991  0.02530179  0.48894234     0.02400
C230        C  0.21394919  0.02670092  0.48775015    -0.13700
C231        C  0.22079508  0.99851201  0.46552193    -0.00100
C232        C  0.18537852  0.46996069  0.44368614    -0.12300
C233        C  0.14592500  0.47051590  0.44326480     0.02400
C234        C  0.14017963  0.99769627  0.46629249    -0.11700
H235        H  0.23914468  0.04952698  0.50486981     0.08000
H236        H  0.18771765  0.44752979  0.42616018     0.05500
H237        H  0.10940814  0.99747891  0.46648795     0.05400
C238        C  0.31290012  0.47547445  0.43902092     0.02400
C239        C  0.27298119  0.47503287  0.43959853    -0.13700
C240        C  0.26419700  0.49897835  0.46495407    -0.00100
C241        C  0.29767284  0.02320466  0.48979362    -0.12300
C242        C  0.33767115  0.02367346  0.48906225     0.02400
C243        C  0.34486800  0.49994307  0.46363210    -0.11700
H244        H  0.25002676  0.45661089  0.41938301     0.08000
H245        H  0.29319921  0.04092984  0.51061446     0.05500
H246        H  0.37567487  0.50020690  0.46319376     0.05400
C247        C  0.02444374  0.17605990  0.44321764     0.02400
C248        C  0.99684040  0.14319467  0.46613268    -0.13700
C249        C  0.46930032  0.14913753  0.48861400    -0.00100
C250        C  0.46819030  0.18827583  0.48730737    -0.12300
C251        C  0.49676105  0.22337553  0.46525357     0.02400
C252        C  0.02540653  0.21636201  0.44358130    -0.11700
H253        H  0.99676110  0.11250220  0.46646770     0.08000
H254        H  0.44534036  0.19067438  0.50432625     0.05500
H255        H  0.04812268  0.24120320  0.42617018     0.05400
C256        C  0.47191139  0.31530873  0.48913095     0.02400
C257        C  0.47182390  0.27547244  0.48947215    -0.13700
C258        C  0.49657655  0.26649338  0.46491171    -0.00100
C259        C  0.02117293  0.29960208  0.43997530    -0.12300
C260        C  0.02090362  0.33915609  0.43956969     0.02400
C261        C  0.49648725  0.34665771  0.46418176    -0.11700
H262        H  0.45328923  0.25286136  0.50986002     0.08000
H263        H  0.03980845  0.29519550  0.41988737     0.05500
H264        H  0.49661003  0.37739325  0.46389914     0.05400
C265        C  0.34556007  0.32108958  0.48909846     0.02400
C266        C  0.30637430  0.28075665  0.48788927    -0.13700
C267        C  0.27121902  0.27415344  0.46582777    -0.00100
C268        C  0.27805494  0.30987761  0.44430032    -0.12300
C269        C  0.31823466  0.34935275  0.44397972     0.02400
C270        C  0.35125030  0.35465021  0.46674794    -0.11700
H271        H  0.30403695  0.25543995  0.50484502     0.08000
H272        H  0.25316663  0.30768392  0.42691794     0.05500
H273        H  0.38193435  0.38532576  0.46697860     0.05400
C274        C  0.17951830  0.15699174  0.48911167     0.02400
C275        C  0.14845866  0.14992862  0.46380618    -0.13700
C276        C  0.15597303  0.18191441  0.43920127     0.04700
C277        C  0.19541738  0.22194471  0.43987274    -0.12300
C278        C  0.22825812  0.23065334  0.46515360     0.02400
C279        C  0.21915714  0.19694703  0.48976704    -0.11700
H280        H  0.11785201  0.11913843  0.46337465     0.08000
H281        H  0.19993214  0.24503853  0.41976559     0.05500
H282        H  0.24150693  0.20124110  0.51044458     0.05400
C283        C  0.05657673  0.43142805  0.37318697     0.85800
C284        C  0.02496849  0.39138553  0.39449310    -0.54500
C285        C  0.04501711  0.37321357  0.41302271     0.08700
C286        C  0.09512593  0.39635055  0.40769463     0.19700
C287        C  0.09026902  0.46258918  0.39947802    -0.55200
C288        C  0.11106524  0.44464704  0.41750119     0.08800
C289        C  0.08191498  0.41647757  0.35101333    -0.54700
C290        C  0.10107894  0.39723491  0.36802356     0.09400
H291        H  0.49012813  0.37952159  0.39607310     0.13900
H292        H  0.11130430  0.38125231  0.42229536    -0.00400
H293        H  0.09802328  0.99623995  0.40267706     0.14200
H294        H  0.08591634  0.42233117  0.32375467     0.14000
C295        C  0.06311324  0.12514691  0.37321280     0.85800
C296        C  0.10349668  0.13380614  0.39415643    -0.54500
C297        C  0.12181700  0.17202586  0.41268526     0.08700
C298        C  0.09849030  0.19887808  0.40767410     0.19700
C299        C  0.03223083  0.12765081  0.39986445    -0.55200
C300        C  0.05030269  0.16656713  0.41775661     0.08800
C301        C  0.07764874  0.16545879  0.35108611    -0.54700
C302        C  0.09690386  0.20386303  0.36809421     0.09400
H303        H  0.11544029  0.11090175  0.39555978     0.13900
H304        H  0.11375660  0.23021062  0.42218553    -0.00400
H305        H  0.49856993  0.10176613  0.40316958     0.14200
H306        H  0.07153128  0.16365032  0.32387229     0.14000
C307        C  0.36895327  0.43821727  0.37336823     0.85800
C308        C  0.36064350  0.47033466  0.39404470    -0.54500
C309        C  0.32251405  0.45078857  0.41272942     0.08700
C310        C  0.29539274  0.40050322  0.40814417     0.19700
C311        C  0.36642293  0.40509818  0.40029414    -0.55200
C312        C  0.32763878  0.38458791  0.41837595     0.08800
C313        C  0.32846792  0.41229235  0.35145457    -0.54700
C314        C  0.29012933  0.39348353  0.36858320     0.09400
H315        H  0.38371119  0.00519307  0.39516014     0.13900
H316        H  0.26414717  0.38467863  0.42280471    -0.00400
H317        H  0.39219093  0.39719349  0.40362315     0.14200
H318        H  0.33008433  0.40756747  0.32429008     0.14000
Fe319      Fe  0.46582275  0.03127664  0.29956137     1.65800
Fe320      Fe  0.46281493  0.43409189  0.30004414     1.73200
Fe321      Fe  0.06007088  0.02853694  0.29973125     1.54400
O322        O  0.06640136  0.07705434  0.26676079    -0.82400
O323        O  0.49596184  0.43076185  0.34362772    -0.80700
O324        O  0.50006290  0.06684611  0.25592907    -0.84900
O325        O  0.00958495  0.07852955  0.33276538    -0.79700
O326        O  0.06142094  0.49425623  0.25621048    -0.81500
O327        O  0.41547038  0.43070382  0.33314807    -0.84300
C328        C  0.04360383  0.08594745  0.34938799     0.96500
C329        C  0.04088921  0.08589981  0.25014835     1.03900
O330        O  0.49621797  0.49794230  0.29979814    -1.13200
O331        O  0.42697521  0.43222234  0.25645472    -0.75700
O332        O  0.41755492  0.48899220  0.26653621    -0.79200
O333        O  0.06381917  0.06532114  0.34330026    -0.79900
C334        C  0.40835060  0.45431360  0.25031484     0.95400
O335        O  0.42886448  0.49830721  0.34309869    -0.77800
O336        O  0.00520222  0.42787882  0.26716480    -0.83000
C337        C  0.03686450  0.45086885  0.34948905     0.98000
C338        C  0.03961189  0.45339861  0.25053952     1.03900
O339        O  0.06349225  0.48475778  0.33277679    -0.78600
C340        C  0.40810883  0.45750860  0.34945967     1.02200
C341        C  0.39583201  0.29243265  0.70685289     0.85800
C342        C  0.43589143  0.30073495  0.72812079    -0.54500
C343        C  0.45437754  0.33896236  0.74667117     0.08700
C344        C  0.43142531  0.36614290  0.74138469     0.19700
C345        C  0.36483923  0.29517475  0.73327700    -0.55200
C346        C  0.38306019  0.33399397  0.75130754     0.08800
C347        C  0.41099292  0.33281832  0.68472439    -0.54700
C348        C  0.43034375  0.37123389  0.70170104     0.09400
H349        H  0.44760931  0.27765488  0.72959280     0.13900
H350        H  0.44676226  0.39744654  0.75593673    -0.00400
H351        H  0.33112770  0.26938534  0.73653642     0.14200
H352        H  0.40550862  0.33106477  0.65743634     0.14000
C353        C  0.20282059  0.10484360  0.70705148     0.85800
C354        C  0.19473262  0.13668881  0.72830549    -0.54500
C355        C  0.15649840  0.11694194  0.74686861     0.08700
C356        C  0.12905328  0.06678865  0.74150123     0.19700
C357        C  0.19992675  0.07105149  0.73345544    -0.55200
C358        C  0.16110288  0.05050169  0.75144809     0.08800
C359        C  0.16241891  0.07976749  0.68485380    -0.54700
C360        C  0.12391280  0.06069331  0.70179676     0.09400
H361        H  0.21798816  0.17146791  0.72986077     0.13900
H362        H  0.09774942  0.05082249  0.75607527    -0.00400
H363        H  0.22564509  0.06307330  0.73678429     0.14200
H364        H  0.16429223  0.07605490  0.65769634     0.14000
C365        C  0.39060469  0.09876131  0.70695795     0.85800
C366        C  0.35887531  0.05895234  0.72847717    -0.54500
C367        C  0.37869421  0.04050221  0.74701039     0.08700
C368        C  0.42880130  0.06317584  0.74144133     0.19700
C369        C  0.42472316  0.12982747  0.73315630    -0.55200
C370        C  0.44529009  0.11158894  0.75118634     0.08800
C371        C  0.41535093  0.08316771  0.68479340    -0.54700
C372        C  0.43453612  0.06389568  0.70172202     0.09400
H373        H  0.32410661  0.04742818  0.73014384     0.13900
H374        H  0.44481656  0.04787498  0.75599804    -0.00400
H375        H  0.43280011  0.16356216  0.73638980     0.14200
H376        H  0.41862492  0.08827396  0.65749721     0.14000
Fe377      Fe  0.29882606  0.19825929  0.63292864     1.65800
Fe378      Fe  0.29655475  0.10125597  0.63316044     1.73200
Fe379      Fe  0.39355344  0.19608812  0.63323226     1.54400
O380        O  0.39933026  0.24404745  0.59979056    -0.82400
O381        O  0.33021559  0.09755672  0.67638711    -0.80700
O382        O  0.33301949  0.23425865  0.58945454    -0.84900
O383        O  0.34225585  0.24562079  0.66634751    -0.79700
O384        O  0.39561088  0.16193349  0.58988130    -0.81500
O385        O  0.24968138  0.09766988  0.66694564    -0.84300
C386        C  0.37640259  0.25328503  0.68290402     0.96500
C387        C  0.37376176  0.25300418  0.58335456     1.03900
O388        O  0.32963325  0.16517223  0.63310837    -1.13200
O389        O  0.25998346  0.09907166  0.58995282    -0.75700
O390        O  0.25066590  0.15594795  0.59964635    -0.79200
O391        O  0.39695524  0.23304938  0.67660003    -0.79900
C392        C  0.24142751  0.12114986  0.58356135     0.95400
O393        O  0.26194676  0.16501545  0.67638003    -0.77800
O394        O  0.33859492  0.09560851  0.59946744    -0.83000
C395        C  0.37095093  0.11830440  0.68302641     0.98000
C396        C  0.37341467  0.12130951  0.58337278     1.03900
O397        O  0.39747270  0.15273872  0.66678693    -0.78600
C398        C  0.24194714  0.12431864  0.68312433     1.02200
C399        C  0.30535526  0.48277886  0.82317297     0.02400
C400        C  0.30594284  0.44331242  0.82416373    -0.13700
C401        C  0.33088020  0.43433450  0.79983795    -0.00100
C402        C  0.35533063  0.46729090  0.77471284    -0.12300
C403        C  0.35443330  0.00652090  0.77367659     0.02400
C404        C  0.32949924  0.01383576  0.79790649    -0.11700
H405        H  0.28762087  0.42093030  0.84474636     0.08000
H406        H  0.37436898  0.46305799  0.75490817     0.05500
H407        H  0.32906568  0.04428213  0.79722305     0.05400
C408        C  0.35752514  0.34336118  0.77722755     0.02400
C409        C  0.35893044  0.38382665  0.77805649    -0.13700
C410        C  0.33107172  0.39121751  0.80034863    -0.00100
C411        C  0.30299675  0.35633994  0.82280963    -0.12300
C412        C  0.30342628  0.31681892  0.82344355     0.02400
C413        C  0.33008939  0.31048737  0.80024162    -0.11700
H414        H  0.38135274  0.40847804  0.76040720     0.08000
H415        H  0.28095940  0.35910019  0.84053443     0.05500
H416        H  0.32953614  0.27955846  0.80017491     0.05400
C417        C  0.15175200  0.01555429  0.77729132     0.02400
C418        C  0.18445620  0.02128115  0.80061137    -0.13700
C419        C  0.17865618  0.48783602  0.82317764    -0.00100
C420        C  0.13962342  0.44732845  0.82170840    -0.12300
C421        C  0.10471499  0.44040431  0.79916452     0.02400
C422        C  0.11177383  0.47594716  0.77735289    -0.11700
H423        H  0.21498959  0.05210416  0.80101618     0.08000
H424        H  0.13719319  0.42220936  0.83893152     0.05500
H425        H  0.08728655  0.47355660  0.75944723     0.05400
C426        C  0.01299660  0.32304421  0.82206089     0.02400
C427        C  0.48147314  0.31651669  0.79734086    -0.13700
C428        C  0.48873756  0.34874708  0.77305518    -0.00100
C429        C  0.02831047  0.38868688  0.77368535    -0.12300
C430        C  0.06168462  0.39688732  0.79837300     0.02400
C431        C  0.05292332  0.36272119  0.82242202    -0.11700
H432        H  0.45070972  0.28588464  0.79706958     0.08000
H433        H  0.03240301  0.41208180  0.75399833     0.05500
H434        H  0.07573636  0.36642490  0.84251104     0.05400
C435        C  0.14688833  0.14131952  0.77344959     0.02400
C436        C  0.17889552  0.16576028  0.79805984    -0.13700
C437        C  0.17214439  0.19035077  0.82299636    -0.00100
C438        C  0.13242190  0.19046251  0.82337690    -0.12300
C439        C  0.09858548  0.16560448  0.79893425     0.02400
C440        C  0.10708349  0.14107429  0.77395797    -0.11700
H441        H  0.20950971  0.16563052  0.79780183     0.08000
H442        H  0.12846857  0.20912406  0.84368643     0.05500
H443        H  0.08400032  0.12233459  0.75392712     0.05400
C444        C  0.00754381  0.19128042  0.82333680     0.02400
C445        C  0.47423318  0.16379449  0.80059995    -0.13700
C446        C  0.48015455  0.13712290  0.77714983    -0.00100
C447        C  0.01978940  0.13684993  0.77733748    -0.12300
C448        C  0.05509418  0.16504048  0.79949407     0.02400
C449        C  0.04799117  0.19271933  0.82212059    -0.11700
H450        H  0.44340907  0.16346312  0.80091898     0.08000
H451        H  0.02232835  0.11497409  0.75933253     0.05500
H452        H  0.07297180  0.21523134  0.83952862     0.05400
C453        C  0.26264700  0.22480437  0.89138105     0.85800
C454        C  0.22508928  0.19397611  0.86757024    -0.54500
C455        C  0.20678029  0.21427546  0.84932935     0.08700
C456        C  0.22832135  0.26407050  0.85675503     0.19700
C457        C  0.29507203  0.26129439  0.86739921    -0.55200
C458        C  0.27732671  0.28194452  0.84907515     0.08800
C459        C  0.24296707  0.24567443  0.91363945    -0.54700
C460        C  0.22624364  0.26720949  0.89648782     0.09400
H461        H  0.21409622  0.15940559  0.86509073     0.13900
H462        H  0.21358615  0.28059265  0.84213898    -0.00400
H463        H  0.32916704  0.27015330  0.86523642     0.14200
H464        H  0.23989217  0.24114064  0.94105853     0.14000
C465        C  0.27080710  0.03887142  0.89127897     0.85800
C466        C  0.30163062  0.03217603  0.86747613    -0.54500
C467        C  0.28129775  0.49357598  0.84924833     0.08700
C468        C  0.23143735  0.46536339  0.85653775     0.19700
C469        C  0.23438394  0.03493176  0.86724940    -0.55200
C470        C  0.21364960  0.49658093  0.84882449     0.08800
C471        C  0.24978458  0.49819706  0.91346078    -0.54700
C472        C  0.22818736  0.45999639  0.89626920     0.09400
H473        H  0.33625184  0.05571109  0.86505605     0.13900
H474        H  0.21493209  0.43413831  0.84189615    -0.00400
H475        H  0.22559724  0.06020910  0.86519807     0.14200
H476        H  0.25414796  0.49949752  0.94088427     0.14000
C477        C  0.45668613  0.23298825  0.89084470     0.85800
C478        C  0.46351938  0.27036082  0.86674025    -0.54500
C479        C  0.00211638  0.28839216  0.84845354     0.08700
C480        C  0.03023714  0.26677502  0.85615872     0.19700
C481        C  0.46052363  0.20026641  0.86711279    -0.55200
C482        C  0.99889061  0.21769493  0.84875044     0.08800
C483        C  0.49730852  0.25275742  0.91305443    -0.54700
C484        C  0.03552704  0.26922768  0.89591988     0.09400
H485        H  0.44006189  0.28148886  0.86415632     0.13900
H486        H  0.06149078  0.28130733  0.84154446    -0.00400
H487        H  0.43515802  0.16618779  0.86519500     0.14200
H488        H  0.49594548  0.25579838  0.94050658     0.14000
Fe489      Fe  0.36132716  0.22929952  0.96470942     1.65800
Fe490      Fe  0.36271193  0.13466827  0.96467202     1.73200
Fe491      Fe  0.26675859  0.13313299  0.96486275     1.54400
O492        O  0.26187684  0.17758837  0.99672652    -0.82400
O493        O  0.33089331  0.09986050  0.92031064    -0.80700
O494        O  0.32911311  0.23123942  0.00908531    -0.84900
O495        O  0.31598964  0.23270230  0.93269533    -0.79700
O496        O  0.26499970  0.09921054  0.00939803    -0.81500
O497        O  0.41136037  0.17996328  0.93245488    -0.84300
C498        C  0.28274486  0.20576965  0.91521852     0.96500
C499        C  0.28816709  0.21117717  0.01403465     1.03900
O500        O  0.33028495  0.16572734  0.96470002    -1.13200
O501        O  0.39683434  0.16681576  0.00897363    -0.75700
O502        O  0.41056487  0.23411975  0.99674440    -0.79200
O503        O  0.26369994  0.16482573  0.92039982    -0.79900
C504        C  0.41764664  0.20768498  0.01407587     0.95400
O505        O  0.39612634  0.23246557  0.92024847    -0.77800
O506        O  0.31838550  0.08538848  0.99687673    -0.83000
C507        C  0.28993880  0.07792588  0.91524687     0.98000
C508        C  0.28494242  0.07824051  0.01435406     1.03900
O509        O  0.26313013  0.08418554  0.93291183    -0.78600
C510        C  0.41771191  0.21317339  0.91489524     1.02200
C511        C  0.22419927  0.76576776  0.04026408     0.85800
C512        C  0.19226588  0.72535422  0.06106085    -0.54500
C513        C  0.21193037  0.70685343  0.07961645     0.08700
C514        C  0.26215037  0.72998234  0.07470169     0.19700
C515        C  0.25755410  0.79644950  0.06701245    -0.55200
C516        C  0.27817310  0.77814671  0.08487529     0.08800
C517        C  0.24998530  0.75130272  0.01812755    -0.54700
C518        C  0.26883714  0.73170311  0.03510831     0.09400
H519        H  0.15742253  0.71356445  0.06241137     0.13900
H520        H  0.27808445  0.71459449  0.08925167    -0.00400
H521        H  0.26541816  0.83009155  0.07047702     0.14200
H522        H  0.25466148  0.75787850  0.99097652     0.14000
C523        C  0.03608873  0.77071165  0.04040979     0.85800
C524        C  0.02791821  0.80246211  0.06167628    -0.54500
C525        C  0.48965490  0.78269564  0.08017736     0.08700
C526        C  0.46233785  0.73258768  0.07485988     0.19700
C527        C  0.03318477  0.73682889  0.06674683    -0.55200
C528        C  0.49431444  0.71620288  0.08470151     0.08800
C529        C  0.49578805  0.74562662  0.01821005    -0.54700
C530        C  0.45738494  0.72667139  0.03520524     0.09400
H531        H  0.05109826  0.83726448  0.06316782     0.13900
H532        H  0.43098158  0.71657539  0.08936691    -0.00400
H533        H  0.05886452  0.72877578  0.06997533     0.14200
H534        H  0.49756565  0.74185113  0.99088798     0.14000
C535        C  0.22925925  0.95937912  0.04032359     0.85800
C536        C  0.26916322  0.96740077  0.06166351    -0.54500
C537        C  0.28760429  0.50549154  0.08034341     0.08700
C538        C  0.26493136  0.53289241  0.07505093     0.19700
C539        C  0.19824887  0.96207060  0.06666053    -0.55200
C540        C  0.21652262  0.50077903  0.08474117     0.08800
C541        C  0.24457579  0.99989501  0.01828268    -0.54700
C542        C  0.26411622  0.53824207  0.03539518     0.09400
H543        H  0.28070802  0.94418476  0.06317497     0.13900
H544        H  0.28023785  0.56409688  0.08974577    -0.00400
H545        H  0.16448178  0.93636965  0.06983608     0.14200
H546        H  0.23877368  0.99829171  0.99103597     0.14000
Fe547      Fe  0.13224599  0.86512303  0.96668258     1.65800
Fe548      Fe  0.22706526  0.86294763  0.96684504     1.73200
Fe549      Fe  0.12999426  0.76797669  0.96670134     1.54400
O550        O  0.08330676  0.76402996  0.00060116    -0.82400
O551        O  0.22921894  0.82826297  0.92399199    -0.80700
O552        O  0.09464188  0.83110584  0.00961399    -0.84900
O553        O  0.08487413  0.82349825  0.93277434    -0.79700
O554        O  0.16380477  0.76410616  0.00962199    -0.81500
O555        O  0.23295729  0.91040306  0.93295509    -0.84300
C556        C  0.07539807  0.78851766  0.91692840     0.96500
C557        C  0.07516843  0.79047005  0.01656362     1.03900
O558        O  0.16309821  0.83201160  0.96677667    -1.13200
O559        O  0.23075953  0.90060678  0.00970852    -0.75700
O560        O  0.17506394  0.91197962  0.00058115    -0.79200
O561        O  0.09334879  0.76597628  0.92369469    -0.79900
C562        C  0.20976472  0.92024914  0.01649928     0.95400
O563        O  0.16695053  0.90197384  0.92378113    -0.77800
O564        O  0.23086475  0.82010837  0.00081624    -0.83000
C565        C  0.20679776  0.78771363  0.91732725     0.98000
C566        C  0.20444523  0.78525522  0.01656280     1.03900
O567        O  0.17165636  0.76215149  0.93299406    -0.78600
C568        C  0.20750655  0.92001304  0.91714675     1.02200
C569        C  0.13818318  0.64889453  0.15552208     0.02400
C570        C  0.13801048  0.60909527  0.15599860    -0.13700
C571        C  0.16276408  0.60006545  0.13159751    -0.00100
C572        C  0.18737787  0.63305682  0.10654222    -0.12300
C573        C  0.18731255  0.67269076  0.10603802     0.02400
C574        C  0.16280435  0.68023177  0.13055281    -0.11700
H575        H  0.11939545  0.58657023  0.17640254     0.08000
H576        H  0.20608515  0.62867856  0.08652259     0.05500
H577        H  0.16299091  0.71099488  0.13025304     0.05400
C578        C  0.19091119  0.51004753  0.11044466     0.02400
C579        C  0.16414009  0.97746562  0.13389053    -0.13700
C580        C  0.13692520  0.98351075  0.15667500    -0.00100
C581        C  0.13552406  0.52249997  0.15523819    -0.12300
C582        C  0.16317687  0.55714597  0.13241434     0.02400
C583        C  0.19131270  0.54995959  0.11039415    -0.11700
H584        H  0.16433029  0.94690736  0.13427659     0.08000
H585        H  0.11309560  0.52503465  0.17265548     0.05500
H586        H  0.21326025  0.57432264  0.09233527     0.05400
C587        C  0.47991691  0.80724598  0.10648169     0.02400
C588        C  0.01229080  0.83243003  0.13056009    -0.13700
C589        C  0.00577669  0.85732626  0.15528431    -0.00100
C590        C  0.46607031  0.85745212  0.15575358    -0.12300
C591        C  0.43175490  0.83182613  0.13188115     0.02400
C592        C  0.43986580  0.80656719  0.10728905    -0.11700
H593        H  0.04298686  0.83246006  0.13017677     0.08000
H594        H  0.46252135  0.87669804  0.17575990     0.05500
H595        H  0.41629923  0.78689066  0.08784352     0.05400
C596        C  0.34068329  0.85738878  0.15689764     0.02400
C597        C  0.30744465  0.83025531  0.13406966    -0.13700
C598        C  0.31324979  0.80363780  0.11057086    -0.00100
C599        C  0.35291541  0.80340367  0.11043320    -0.12300
C600        C  0.38821675  0.83124578  0.13271631     0.02400
C601        C  0.38103746  0.85859126  0.15572248    -0.11700
H602        H  0.27668327  0.83005874  0.13443844     0.08000
H603        H  0.35549774  0.78190902  0.09205153     0.05500
H604        H  0.40581851  0.88063765  0.17346905     0.05400
C605        C  0.28945304  0.89856141  0.22442564     0.85800
C606        C  0.29601972  0.93582267  0.20036653    -0.54500
C607        C  0.33463318  0.95413756  0.18214429     0.08700
C608        C  0.36297640  0.93268526  0.18973655     0.19700
C609        C  0.29347398  0.86594079  0.20071517    -0.55200
C610        C  0.33187533  0.88358375  0.18236511     0.08800
C611        C  0.33011271  0.91847538  0.24662942    -0.54700
C612        C  0.36833651  0.93500689  0.22946246     0.09400
H613        H  0.27241056  0.94676970  0.19784888     0.13900
H614        H  0.39420928  0.94736319  0.17509107    -0.00400
H615        H  0.26824455  0.83180273  0.19879920     0.14200
H616        H  0.32876807  0.92156266  0.27404708     0.14000
C617        C  0.10402169  0.70481990  0.22402430     0.85800
C618        C  0.13479786  0.69814146  0.20016646    -0.54500
C619        C  0.11438820  0.65955745  0.18191685     0.08700
C620        C  0.06459180  0.63119460  0.18944536     0.19700
C621        C  0.06752215  0.70075933  0.20004650    -0.55200
C622        C  0.04673170  0.66229988  0.18178457     0.08800
C623        C  0.08307114  0.66419536  0.24628451    -0.54700
C624        C  0.06148304  0.62590818  0.22919532     0.09400
H625        H  0.16938283  0.72174477  0.19762179     0.13900
H626        H  0.04804444  0.59993940  0.17484009    -0.00400
H627        H  0.05872875  0.72602560  0.19789354     0.14200
H628        H  0.08736868  0.66564687  0.27371690     0.14000
C629        C  0.09567018  0.89075800  0.22401927     0.85800
C630        C  0.05859824  0.86038666  0.19967585    -0.54500
C631        C  0.04041363  0.88098435  0.18164486     0.08700
C632        C  0.06170431  0.93060062  0.18972228     0.19700
C633        C  0.12839678  0.92782104  0.20059879    -0.55200
C634        C  0.11081828  0.94870054  0.18237022     0.08800
C635        C  0.07540022  0.91091593  0.24642870    -0.54700
C636        C  0.05896318  0.93286576  0.22950154     0.09400
H637        H  0.04772181  0.82588192  0.19680021     0.13900
H638        H  0.04709509  0.94732911  0.17522933    -0.00400
H639        H  0.16250869  0.93669341  0.19858137     0.14200
H640        H  0.07182296  0.90565287  0.27376332     0.14000
Fe641      Fe  0.19551494  0.80051211  0.29803815     1.65800
Fe642      Fe  0.09924775  0.79872746  0.29745758     1.73200
Fe643      Fe  0.19374033  0.89492513  0.29779248     1.54400
O644        O  0.24281011  0.90007062  0.33012945    -0.82400
O645        O  0.09640277  0.83058470  0.25299980    -0.80700
O646        O  0.22962419  0.83299031  0.34244753    -0.84900
O647        O  0.24419071  0.84565149  0.26598942    -0.79700
O648        O  0.16128393  0.89682745  0.34197441    -0.81500
O649        O  0.09605239  0.75023723  0.26527159    -0.84300
C650        C  0.25047051  0.87875542  0.24837480     0.96500
C651        C  0.25019732  0.87391382  0.34752690     1.03900
O652        O  0.16282471  0.83136289  0.29777241    -1.13200
O653        O  0.09699507  0.76422652  0.34174595    -0.75700
O654        O  0.15122133  0.75132276  0.33004645    -0.79200
O655        O  0.22877807  0.89797269  0.25356367    -0.79900
C656        C  0.11735633  0.74372621  0.34703883     0.95400
O657        O  0.16392647  0.76546823  0.25359166    -0.77800
O658        O  0.09412921  0.84298671  0.32959542    -0.83000
C659        C  0.11558299  0.87151524  0.24783332     0.98000
C660        C  0.12035714  0.87663486  0.34693797     1.03900
O661        O  0.14867596  0.89832608  0.26548558    -0.78600
C662        C  0.12304494  0.74386721  0.24799480     1.02200
C663        C  0.01171252  0.65341037  0.15625433     0.02400
C664        C  0.47251114  0.61306546  0.15517036    -0.13700
C665        C  0.43756774  0.60620335  0.13275191    -0.00100
C666        C  0.44469109  0.64168553  0.11078934    -0.12300
C667        C  0.48486381  0.68110734  0.11041726     0.02400
C668        C  0.01765870  0.68668901  0.13350736    -0.11700
H669        H  0.46996541  0.58804048  0.17257159     0.08000
H670        H  0.42007651  0.63944404  0.09309761     0.05500
H671        H  0.04834077  0.71737093  0.13371194     0.05400
C672        C  0.32158751  0.51496304  0.10690516     0.02400
C673        C  0.31393782  0.98278546  0.13136138    -0.13700
C674        C  0.34544568  0.98910396  0.15605046    -0.00100
C675        C  0.38542660  0.52877266  0.15649178    -0.12300
C676        C  0.39444968  0.56282829  0.13223002     0.02400
C677        C  0.36133564  0.55460977  0.10736382    -0.11700
H678        H  0.28303421  0.95229465  0.13108171     0.08000
H679        H  0.40816208  0.53250256  0.17666692     0.05500
H680        H  0.36577943  0.57775726  0.08734818     0.05400
C681        C  0.43754403  0.87184071  0.55717602     0.85800
C682        C  0.46840676  0.86472242  0.53370026    -0.54500
C683        C  0.44798235  0.82610395  0.51543769     0.08700
C684        C  0.39802347  0.79821292  0.52254360     0.19700
C685        C  0.40155715  0.86816345  0.53282782    -0.55200
C686        C  0.38067428  0.82974070  0.51452400     0.08800
C687        C  0.41588373  0.83123073  0.57940821    -0.54700
C688        C  0.39436019  0.79294940  0.56230942     0.09400
H689        H  0.00307161  0.88812162  0.53137081     0.13900
H690        H  0.38140931  0.76696152  0.50794101    -0.00400
H691        H  0.39298312  0.89358382  0.53062331     0.14200
H692        H  0.41948693  0.83266763  0.60689128     0.14000
C693        C  0.42850734  0.55769799  0.55711754     0.85800
C694        C  0.39037562  0.52685098  0.53370760    -0.54500
C695        C  0.37220887  0.54731956  0.51548945     0.08700
C696        C  0.39433027  0.59720208  0.52252734     0.19700
C697        C  0.46079227  0.59360841  0.53268552    -0.55200
C698        C  0.44314877  0.61440201  0.51435869     0.08800
C699        C  0.40978225  0.57950749  0.57933962    -0.54700
C700        C  0.39288638  0.60092246  0.56228019     0.09400
H701        H  0.37908528  0.99221113  0.53129608     0.13900
H702        H  0.37963732  0.61376920  0.50791592    -0.00400
H703        H  0.49476826  0.60210237  0.53035659     0.14200
H704        H  0.40793045  0.57614098  0.60680079     0.14000
C705        C  0.12261860  0.56611035  0.55712777     0.85800
C706        C  0.12993559  0.60423244  0.53372422    -0.54500
C707        C  0.16859949  0.62239946  0.51553898     0.08700
C708        C  0.19635642  0.60027618  0.52268412     0.19700
C709        C  0.12620626  0.53381992  0.53274230    -0.55200
C710        C  0.16472363  0.55144776  0.51451447     0.08800
C711        C  0.16314482  0.58484967  0.57947489    -0.54700
C712        C  0.20150275  0.60170324  0.56243827     0.09400
H713        H  0.10659983  0.61553605  0.53129991     0.13900
H714        H  0.22765688  0.61497821  0.50813410    -0.00400
H715        H  0.10067781  0.99985914  0.53041509     0.14200
H716        H  0.16156055  0.58679153  0.60685502     0.14000
Fe717      Fe  0.02895779  0.96780849  0.63108427     1.65800
Fe718      Fe  0.43267698  0.96582651  0.63069626     1.73200
Fe719      Fe  0.02705009  0.56206147  0.63084229     1.54400
O720        O  0.07679602  0.56738778  0.66277562    -0.82400
O721        O  0.42962246  0.99759032  0.58615617    -0.80700
O722        O  0.06301401  0.00026732  0.67561572    -0.84900
O723        O  0.07754905  0.51321566  0.59892751    -0.79700
O724        O  0.49480987  0.56360598  0.67542287    -0.81500
O725        O  0.42951297  0.91717348  0.59859739    -0.84300
C726        C  0.08356654  0.54615050  0.58113359     0.96500
C727        C  0.08399139  0.54125072  0.68046162     1.03900
O728        O  0.49621077  0.99854015  0.63083475    -1.13200
O729        O  0.43074575  0.93171485  0.67519210    -0.75700
O730        O  0.48459068  0.91838956  0.66316066    -0.79200
O731        O  0.06157667  0.56508626  0.58622439    -0.79900
C732        C  0.45096782  0.91107206  0.68045026     0.95400
O733        O  0.49743340  0.93284985  0.58656144    -0.77800
O734        O  0.42757631  0.51009060  0.66280847    -0.83000
C735        C  0.44850062  0.53855489  0.58111586     0.98000
C736        C  0.45384965  0.54343807  0.68042400     1.03900
O737        O  0.48152459  0.56541741  0.59885547    -0.78600
C738        C  0.45652294  0.91093660  0.58117782     1.02200
C739        C  0.17351181  0.52530323  0.48893553     0.02400
C740        C  0.21395506  0.52671064  0.48773812    -0.13700
C741        C  0.22080359  0.49852478  0.46550809    -0.00100
C742        C  0.18537058  0.96995153  0.44369788    -0.12300
C743        C  0.14592042  0.97051346  0.44327217     0.02400
C744        C  0.14018089  0.49769385  0.46628784    -0.11700
H745        H  0.23915129  0.54953965  0.50485578     0.08000
H746        H  0.18770810  0.94751898  0.42617281     0.05500
H747        H  0.10940643  0.49747026  0.46648639     0.05400
C748        C  0.31289643  0.97547159  0.43902702     0.02400
C749        C  0.27297179  0.97501853  0.43961230    -0.13700
C750        C  0.26418787  0.99896399  0.46496830    -0.00100
C751        C  0.29767966  0.52321539  0.48978177    -0.12300
C752        C  0.33767280  0.52367354  0.48905788     0.02400
C753        C  0.34486847  0.99994902  0.46363270    -0.11700
H754        H  0.25001337  0.95658917  0.41940132     0.08000
H755        H  0.29320708  0.54094454  0.51059990     0.05500
H756        H  0.37567982  0.00022203  0.46318896     0.05400
C757        C  0.02443458  0.67605588  0.44321501     0.02400
C758        C  0.99683370  0.64319217  0.46613252    -0.13700
C759        C  0.46929495  0.64913541  0.48861399    -0.00100
C760        C  0.46818402  0.68827315  0.48730538    -0.12300
C761        C  0.49675471  0.72337215  0.46525099     0.02400
C762        C  0.02539624  0.71635759  0.44357732    -0.11700
H763        H  0.99675432  0.61249965  0.46646787     0.08000
H764        H  0.44533322  0.69067181  0.50432316     0.05500
H765        H  0.04810973  0.74119724  0.42616387     0.05400
C766        C  0.47190346  0.81530461  0.48912541     0.02400
C767        C  0.47181794  0.77546951  0.48946830    -0.13700
C768        C  0.49656866  0.76648920  0.46490695    -0.00100
C769        C  0.02116325  0.79959878  0.43997056    -0.12300
C770        C  0.02089458  0.83915339  0.43956507     0.02400
C771        C  0.49647753  0.84665267  0.46417510    -0.11700
H772        H  0.45328660  0.75286043  0.50985824     0.08000
H773        H  0.03979968  0.79519260  0.41988322     0.05500
H774        H  0.49660038  0.87738821  0.46389239     0.05400
C775        C  0.34555462  0.82108319  0.48909650     0.02400
C776        C  0.30636871  0.78075077  0.48788643    -0.13700
C777        C  0.27121497  0.77414746  0.46582302    -0.00100
C778        C  0.27805316  0.80987157  0.44429406    -0.12300
C779        C  0.31823308  0.84934748  0.44397570     0.02400
C780        C  0.35124713  0.85464377  0.46674509    -0.11700
H781        H  0.30403022  0.75543469  0.50484334     0.08000
H782        H  0.25316601  0.80767757  0.42691003     0.05500
H783        H  0.38193134  0.88531917  0.46697699     0.05400
C784        C  0.17951142  0.65698836  0.48911317     0.02400
C785        C  0.14845012  0.64992530  0.46380879    -0.13700
C786        C  0.15596525  0.68190942  0.43920162     0.04700
C787        C  0.19541164  0.72193829  0.43986996    -0.12300
C788        C  0.22825287  0.73064781  0.46515050     0.02400
C789        C  0.21915121  0.69694292  0.48976583    -0.11700
H790        H  0.11784245  0.61913613  0.46337905     0.08000
H791        H  0.19992756  0.74503083  0.41976123     0.05500
H792        H  0.24150165  0.70123711  0.51044276     0.05400
C793        C  0.05658074  0.93143365  0.37318774     0.85800
C794        C  0.02496843  0.89138922  0.39449048    -0.54500
C795        C  0.04501298  0.87321384  0.41302084     0.08700
C796        C  0.09512253  0.89635031  0.40769711     0.19700
C797        C  0.09026924  0.96259154  0.39948211    -0.55200
C798        C  0.11106205  0.94464671  0.41750645     0.08800
C799        C  0.08192162  0.91648468  0.35101515    -0.54700
C800        C  0.10108098  0.89723775  0.36802612     0.09400
H801        H  0.49012588  0.87952355  0.39606633     0.13900
H802        H  0.11129772  0.88124964  0.42229886    -0.00400
H803        H  0.09802266  0.49623757  0.40267194     0.14200
H804        H  0.08592830  0.92234231  0.32375692     0.14000
C805        C  0.06310695  0.62514383  0.37321057     0.85800
C806        C  0.10348862  0.63380137  0.39415633    -0.54500
C807        C  0.12180842  0.67202046  0.41268597     0.08700
C808        C  0.09848296  0.69887368  0.40767379     0.19700
C809        C  0.03222286  0.62764757  0.39986091    -0.55200
C810        C  0.05029408  0.66656320  0.41775401     0.08800
C811        C  0.07764499  0.66545699  0.35108453    -0.54700
C812        C  0.09690031  0.70386059  0.36809381     0.09400
H813        H  0.11543205  0.61089689  0.39555973     0.13900
H814        H  0.11374877  0.73020563  0.42218599    -0.00400
H815        H  0.49856572  0.60176213  0.40316843     0.14200
H816        H  0.07152831  0.66365005  0.32387064     0.14000
C817        C  0.36895441  0.93822234  0.37337169     0.85800
C818        C  0.36064248  0.97033704  0.39404976    -0.54500
C819        C  0.32251224  0.95078819  0.41273388     0.08700
C820        C  0.29539249  0.90050271  0.40814572     0.19700
C821        C  0.36642404  0.90510112  0.40029568    -0.55200
C822        C  0.32763865  0.88458709  0.41837576     0.08800
C823        C  0.32847018  0.91229844  0.35145680    -0.54700
C824        C  0.29013097  0.89348604  0.36858461     0.09400
H825        H  0.38371316  0.50519054  0.39515384     0.13900
H826        H  0.26414625  0.88467561  0.42280530    -0.00400
H827        H  0.39219246  0.89719689  0.40362376     0.14200
H828        H  0.33008799  0.90757614  0.32429233     0.14000
Fe829      Fe  0.46582210  0.53127331  0.29956032     1.65800
Fe830      Fe  0.46281693  0.93409676  0.30004998     1.73200
Fe831      Fe  0.06006721  0.52853219  0.29973159     1.54400
O832        O  0.06640025  0.57705120  0.26676085    -0.82400
O833        O  0.49596442  0.93077325  0.34363440    -0.80700
O834        O  0.50006344  0.56684538  0.25592890    -0.84900
O835        O  0.00958254  0.57852835  0.33275933    -0.79700
O836        O  0.06142178  0.99426091  0.25620911    -0.81500
O837        O  0.41547280  0.93071013  0.33315299    -0.84300
C838        C  0.04359889  0.58594462  0.34938500     0.96500
C839        C  0.04088942  0.58589681  0.25014639     1.03900
O840        O  0.49621884  0.99794635  0.29980042    -1.13200
O841        O  0.42697621  0.93222235  0.25645982    -0.75700
O842        O  0.41755637  0.98899359  0.26653670    -0.79200
O843        O  0.06381247  0.56531577  0.34330048    -0.79900
C844        C  0.40835221  0.95431357  0.25031714     0.95400
O845        O  0.42886421  0.99831300  0.34310052    -0.77800
O846        O  0.00520624  0.92788395  0.26716895    -0.83000
C847        C  0.03687067  0.95087623  0.34948993     0.98000
C848        C  0.03961371  0.95340266  0.25054098     1.03900
O849        O  0.06349872  0.98476342  0.33277593    -0.78600
C850        C  0.40811019  0.95751482  0.34946333     1.02200
C851        C  0.39583250  0.79243095  0.70685384     0.85800
C852        C  0.43589013  0.80073243  0.72812411    -0.54500
C853        C  0.45437877  0.83896255  0.74667139     0.08700
C854        C  0.43143007  0.86614592  0.74138024     0.19700
C855        C  0.36484093  0.79517986  0.73327553    -0.55200
C856        C  0.38306425  0.83400093  0.75130394     0.08800
C857        C  0.41099831  0.83281474  0.68472205    -0.54700
C858        C  0.43035012  0.87123256  0.70169570     0.09400
H859        H  0.44760541  0.77765048  0.72959952     0.13900
H860        H  0.44676872  0.89745134  0.75592995    -0.00400
H861        H  0.33112904  0.76939204  0.73653655     0.14200
H862        H  0.40551530  0.83105767  0.65743396     0.14000
C863        C  0.20282060  0.60484602  0.70705617     0.85800
C864        C  0.19473487  0.63669026  0.72831450    -0.54500
C865        C  0.15649948  0.61694267  0.74687617     0.08700
C866        C  0.12905343  0.56678980  0.74150647     0.19700
C867        C  0.19992483  0.57105004  0.73345845    -0.55200
C868        C  0.16110144  0.55050051  0.75145151     0.08800
C869        C  0.16241891  0.57977670  0.68485944    -0.54700
C870        C  0.12391381  0.56069899  0.70180017     0.09400
H871        H  0.21799150  0.67146917  0.72987158     0.13900
H872        H  0.09774931  0.55082354  0.75608046    -0.00400
H873        H  0.22564248  0.56307056  0.73678612     0.14200
H874        H  0.16429119  0.57608602  0.65769406     0.14000
C875        C  0.39060134  0.59875739  0.70696338     0.85800
C876        C  0.35887593  0.55894657  0.72848276    -0.54500
C877        C  0.37869971  0.54050110  0.74701592     0.08700
C878        C  0.42880726  0.56318106  0.74144685     0.19700
C879        C  0.42471783  0.62982653  0.73316200    -0.55200
C880        C  0.44529040  0.61159338  0.75119160     0.08800
C881        C  0.41535120  0.58316803  0.68479883    -0.54700
C882        C  0.43454150  0.56390118  0.70172739     0.09400
H883        H  0.32410639  0.54741800  0.73014990     0.13900
H884        H  0.44482614  0.54788379  0.75600343    -0.00400
H885        H  0.43279007  0.66355984  0.73639524     0.14200
H886        H  0.41861980  0.58826894  0.65750157     0.14000
Fe887      Fe  0.29882351  0.69825590  0.63292793     1.65800
Fe888      Fe  0.29654926  0.60125050  0.63316664     1.73200
Fe889      Fe  0.39354707  0.69608185  0.63323609     1.54400
O890        O  0.39932814  0.74404862  0.59979912    -0.82400
O891        O  0.33020856  0.59755226  0.67639550    -0.80700
O892        O  0.33301684  0.73425049  0.58945111    -0.84900
O893        O  0.34225704  0.74562024  0.66634560    -0.79700
O894        O  0.39559979  0.66192920  0.58988089    -0.81500
O895        O  0.24967809  0.59766891  0.66695134    -0.84300
C896        C  0.37639995  0.75328021  0.68290676     0.96500
C897        C  0.37376085  0.75300186  0.58335713     1.03900
O898        O  0.32962788  0.66516681  0.63311158    -1.13200
O899        O  0.25997762  0.59906330  0.58995782    -0.75700
O900        O  0.25066251  0.65594225  0.59964566    -0.79200
O901        O  0.39694740  0.73303786  0.67660792    -0.79900
C902        C  0.24142402  0.62114274  0.58356229     0.95400
O903        O  0.26194462  0.66501593  0.67638140    -0.77800
O904        O  0.33859018  0.59560195  0.59947439    -0.83000
C905        C  0.37094486  0.61829750  0.68303080     0.98000
C906        C  0.37340612  0.62130389  0.58337528     1.03900
O907        O  0.39746570  0.65272822  0.66678691    -0.78600
C908        C  0.24194628  0.62431986  0.68312914     1.02200
C909        C  0.30534608  0.98277823  0.82316638     0.02400
C910        C  0.30593967  0.94331496  0.82416009    -0.13700
C911        C  0.33088041  0.93433937  0.79983602    -0.00100
C912        C  0.35532892  0.96729538  0.77471039    -0.12300
C913        C  0.35444222  0.50652034  0.77368322     0.02400
C914        C  0.32951335  0.51383822  0.79791590    -0.11700
H915        H  0.28762046  0.92093408  0.84474415     0.08000
H916        H  0.37437218  0.96306538  0.75490855     0.05500
H917        H  0.32908438  0.54428693  0.79723456     0.05400
C918        C  0.35753246  0.84337001  0.77722662     0.02400
C919        C  0.35893623  0.88383491  0.77805572    -0.13700
C920        C  0.33107737  0.89122496  0.80034873    -0.00100
C921        C  0.30300441  0.85634746  0.82281076    -0.12300
C922        C  0.30343459  0.81682670  0.82344416     0.02400
C923        C  0.33009903  0.81049673  0.80024240    -0.11700
H924        H  0.38135646  0.90848584  0.76040502     0.08000
H925        H  0.28096705  0.85910704  0.84053588     0.05500
H926        H  0.32954691  0.77956842  0.80017576     0.05400
C927        C  0.15175081  0.51555310  0.77729572     0.02400
C928        C  0.18445722  0.52127811  0.80061286    -0.13700
C929        C  0.17865512  0.98783847  0.82317537    -0.00100
C930        C  0.13962513  0.94732922  0.82170235    -0.12300
C931        C  0.10471802  0.94040415  0.79915692     0.02400
C932        C  0.11177701  0.97594646  0.77734482    -0.11700
H933        H  0.21499214  0.55209961  0.80101537     0.08000
H934        H  0.13719565  0.92220976  0.83892460     0.05500
H935        H  0.08729123  0.97355451  0.75943686     0.05400
C936        C  0.01299609  0.82305050  0.82206219     0.02400
C937        C  0.48147358  0.81652109  0.79734450    -0.13700
C938        C  0.48873910  0.84874876  0.77305564    -0.00100
C939        C  0.02831232  0.88868716  0.77368019    -0.12300
C940        C  0.06168729  0.89688818  0.79836701     0.02400
C941        C  0.05292524  0.86272452  0.82241867    -0.11700
H942        H  0.45070892  0.78589030  0.79707568     0.08000
H943        H  0.03240606  0.91207962  0.75399044     0.05500
H944        H  0.07573948  0.86642800  0.84250650     0.05400
C945        C  0.14688732  0.64131989  0.77345594     0.02400
C946        C  0.17889300  0.66575812  0.79806748    -0.13700
C947        C  0.17214394  0.69035237  0.82300127    -0.00100
C948        C  0.13242205  0.69046571  0.82338115    -0.12300
C949        C  0.09858641  0.66560974  0.79893702     0.02400
C950        C  0.10708496  0.64108023  0.77396040    -0.11700
H951        H  0.20950573  0.66562548  0.79781116     0.08000
H952        H  0.12846853  0.70912733  0.84369061     0.05500
H953        H  0.08400400  0.62234588  0.75392639     0.05400
C954        C  0.00754792  0.69129235  0.82333480     0.02400
C955        C  0.47423611  0.66380479  0.80060200    -0.13700
C956        C  0.48015766  0.63713275  0.77715245    -0.00100
C957        C  0.01978806  0.63685174  0.77734286    -0.12300
C958        C  0.05509571  0.66504751  0.79949548     0.02400
C959        C  0.04799542  0.69273141  0.82211816    -0.11700
H960        H  0.44341135  0.66347202  0.80092157     0.08000
H961        H  0.02232467  0.61496970  0.75934310     0.05500
H962        H  0.07297800  0.71524638  0.83952358     0.05400
C963        C  0.26265074  0.72481154  0.89138222     0.85800
C964        C  0.22509244  0.69398215  0.86757274    -0.54500
C965        C  0.20678322  0.71428036  0.84933086     0.08700
C966        C  0.22832610  0.76407638  0.85675297     0.19700
C967        C  0.29507636  0.76129960  0.86739921    -0.55200
C968        C  0.27733210  0.78194981  0.84907384     0.08800
C969        C  0.24297163  0.74568417  0.91363862    -0.54700
C970        C  0.22624784  0.76721775  0.89648523     0.09400
H971        H  0.21409778  0.65941098  0.86509595     0.13900
H972        H  0.21359113  0.78059776  0.84213554    -0.00400
H973        H  0.32917145  0.77015845  0.86523779     0.14200
H974        H  0.23989592  0.74115195  0.94105772     0.14000
C975        C  0.27080734  0.53886919  0.89128191     0.85800
C976        C  0.30163370  0.53217557  0.86748087    -0.54500
C977        C  0.28129207  0.99357590  0.84924456     0.08700
C978        C  0.23143255  0.96536424  0.85653744     0.19700
C979        C  0.23438582  0.53492937  0.86725054    -0.55200
C980        C  0.21364605  0.99658265  0.84882417     0.08800
C981        C  0.24978522  0.99820073  0.91345951    -0.54700
C982        C  0.22818546  0.95999935  0.89626936     0.09400
H983        H  0.33625524  0.55571081  0.86506352     0.13900
H984        H  0.21492570  0.93413848  0.84189689    -0.00400
H985        H  0.22559756  0.56020562  0.86519979     0.14200
H986        H  0.25414974  0.99950318  0.94088280     0.14000
C987        C  0.45668465  0.73299388  0.89084798     0.85800
C988        C  0.46352040  0.77036882  0.86674518    -0.54500
C989        C  0.00211711  0.78840030  0.84845585     0.08700
C990        C  0.03023880  0.76678421  0.85616009     0.19700
C991        C  0.46052288  0.70027353  0.86711447    -0.55200
C992        C  0.99889366  0.71770482  0.84874970     0.08800
C993        C  0.49730561  0.75276022  0.91305947    -0.54700
C994        C  0.03552713  0.76923400  0.89592123     0.09400
H995        H  0.44006298  0.78149682  0.86416032     0.13900
H996        H  0.06149292  0.78131820  0.84154646    -0.00400
H997        H  0.43515691  0.66619518  0.86519482     0.14200
H998        H  0.49594090  0.75580028  0.94051203     0.14000
Fe999      Fe  0.36132626  0.72930269  0.96471346     1.65800
Fe1000     Fe  0.36270921  0.63467095  0.96467310     1.73200
Fe1001     Fe  0.26675719  0.63313652  0.96486165     1.54400
O1002       O  0.26187585  0.67759364  0.99672370    -0.82400
O1003       O  0.33089095  0.59986178  0.92031258    -0.80700
O1004       O  0.32911229  0.73123835  0.00909075    -0.84900
O1005       O  0.31598810  0.73270776  0.93270140    -0.79700
O1006       O  0.26499526  0.59921458  0.00939799    -0.81500
O1007       O  0.41135654  0.67996601  0.93245522    -0.84300
C1008       C  0.28274688  0.70577594  0.91522068     0.96500
C1009       C  0.28816555  0.71117847  0.01403612     1.03900
O1010       O  0.33028332  0.66573040  0.96470133    -1.13200
O1011       O  0.39683159  0.66681677  0.00897412    -0.75700
O1012       O  0.41056575  0.73412195  0.99674615    -0.79200
O1013       O  0.26370468  0.66483117  0.92039759    -0.79900
C1014       C  0.41764653  0.70768559  0.01407623     0.95400
O1015       O  0.39612459  0.73247070  0.92025157    -0.77800
O1016       O  0.31838279  0.58539398  0.99687875    -0.83000
C1017       C  0.28993662  0.57792451  0.91524959     0.98000
C1018       C  0.28493918  0.57824584  0.01435527     1.03900
O1019       O  0.26312740  0.58418515  0.93291307    -0.78600
C1020       C  0.41770924  0.71317772  0.91489710     1.02200
C1021       C  0.72419597  0.26576283  0.04026460     0.85800
C1022       C  0.69226342  0.22534854  0.06106131    -0.54500
C1023       C  0.71192862  0.20684745  0.07961598     0.08700
C1024       C  0.76214890  0.22997734  0.07470030     0.19700
C1025       C  0.75755187  0.29644404  0.06701244    -0.55200
C1026       C  0.77817221  0.27814180  0.08487415     0.08800
C1027       C  0.74998148  0.25129815  0.01812676    -0.54700
C1028       C  0.76883453  0.23169889  0.03510685     0.09400
H1029       H  0.65742006  0.21355850  0.06241240     0.13900
H1030       H  0.77808393  0.21458973  0.08924929    -0.00400
H1031       H  0.76541620  0.33008619  0.07047705     0.14200
H1032       H  0.75465660  0.25787445  0.99097584     0.14000
C1033       C  0.53609035  0.27071294  0.04040757     0.85800
C1034       C  0.52792066  0.30246015  0.06167903    -0.54500
C1035       C  0.98965817  0.28269133  0.08018405     0.08700
C1036       C  0.96234025  0.23258407  0.07486129     0.19700
C1037       C  0.53318762  0.23682639  0.06673997    -0.55200
C1038       C  0.99431687  0.21619675  0.08469566     0.08800
C1039       C  0.99578791  0.24563629  0.01821020    -0.54700
C1040       C  0.95738551  0.22667587  0.03520628     0.09400
H1041       H  0.55110021  0.33726253  0.06317225     0.13900
H1042       H  0.93098478  0.21656922  0.08936944    -0.00400
H1043       H  0.55886792  0.22877350  0.06996552     0.14200
H1044       H  0.99756423  0.24186973  0.99088735     0.14000
C1045       C  0.72925943  0.45938329  0.04032006     0.85800
C1046       C  0.76916152  0.46740399  0.06166235    -0.54500
C1047       C  0.78761085  0.00548735  0.08034105     0.08700
C1048       C  0.76493801  0.03288881  0.07505230     0.19700
C1049       C  0.69824695  0.46207434  0.06665527    -0.55200
C1050       C  0.71653028  0.00077576  0.08474680     0.08800
C1051       C  0.74457778  0.49990007  0.01828020    -0.54700
C1052       C  0.76411839  0.03823849  0.03539667     0.09400
H1053       H  0.78070591  0.44418782  0.06317442     0.13900
H1054       H  0.78024712  0.06409342  0.08974701    -0.00400
H1055       H  0.66447944  0.43637362  0.06982925     0.14200
H1056       H  0.73877723  0.49829816  0.99103331     0.14000
Fe1057     Fe  0.63224743  0.36512341  0.96667940     1.65800
Fe1058     Fe  0.72706605  0.36294508  0.96684355     1.73200
Fe1059     Fe  0.62999325  0.26797526  0.96670006     1.54400
O1060       O  0.58330605  0.26403182  0.00059754    -0.82400
O1061       O  0.72921907  0.32825384  0.92399475    -0.80700
O1062       O  0.59464267  0.33110794  0.00961115    -0.84900
O1063       O  0.58487549  0.32349736  0.93277013    -0.79700
O1064       O  0.66380180  0.26410241  0.00962168    -0.81500
O1065       O  0.73295903  0.41039568  0.93294743    -0.84300
C1066       C  0.57539980  0.28851637  0.91692453     0.96500
C1067       C  0.57516889  0.29047218  0.01656058     1.03900
O1068       O  0.66309906  0.33201081  0.96677492    -1.13200
O1069       O  0.73076373  0.40061357  0.00970249    -0.75700
O1070       O  0.67506407  0.41198090  0.00057829    -0.79200
O1071       O  0.59335094  0.26597572  0.92369173    -0.79900
C1072       C  0.70976672  0.42025347  0.01649478     0.95400
O1073       O  0.66695411  0.40197460  0.92377905    -0.77800
O1074       O  0.73086169  0.32010769  0.00082040    -0.83000
C1075       C  0.70679497  0.28770500  0.91732895     0.98000
C1076       C  0.70444188  0.28525217  0.01656451     1.03900
O1077       O  0.67165266  0.26214473  0.93299479    -0.78600
C1078       C  0.70750924  0.42000961  0.91714208     1.02200
C1079       C  0.63818692  0.14889152  0.15552603     0.02400
C1080       C  0.63802262  0.10909615  0.15600794    -0.13700
C1081       C  0.66277453  0.10006508  0.13160559    -0.00100
C1082       C  0.68738211  0.13305301  0.10654615    -0.12300
C1083       C  0.68731184  0.17268476  0.10603849     0.02400
C1084       C  0.66280170  0.18022493  0.13055232    -0.11700
H1085       H  0.61941542  0.08657515  0.17641650     0.08000
H1086       H  0.70608776  0.12867293  0.08652604     0.05500
H1087       H  0.66298330  0.21098552  0.13024939     0.05400
C1088       C  0.69092071  0.01004545  0.11045246     0.02400
C1089       C  0.66413948  0.47746916  0.13388698    -0.13700
C1090       C  0.63692484  0.48351358  0.15667206    -0.00100
C1091       C  0.63553100  0.02249817  0.15524378    -0.12300
C1092       C  0.66318902  0.05714618  0.13242364     0.02400
C1093       C  0.69132766  0.04996058  0.11040581    -0.11700
H1094       H  0.66433204  0.44691205  0.13427368     0.08000
H1095       H  0.61310027  0.02503267  0.17265869     0.05500
H1096       H  0.71328040  0.07432672  0.09235110     0.05400
C1097       C  0.97991750  0.30724065  0.10648689     0.02400
C1098       C  0.51229170  0.33242591  0.13056112    -0.13700
C1099       C  0.50577986  0.35732673  0.15528200    -0.00100
C1100       C  0.96607628  0.35746181  0.15574723    -0.12300
C1101       C  0.93175907  0.33183081  0.13187747     0.02400
C1102       C  0.93986809  0.30656559  0.10729019    -0.11700
H1103       H  0.54298737  0.33245514  0.13017834     0.08000
H1104       H  0.96253037  0.37671554  0.17574844     0.05500
H1105       H  0.91630174  0.28688768  0.08784506     0.05400
C1106       C  0.84068494  0.35739163  0.15689122     0.02400
C1107       C  0.80744576  0.33025440  0.13406523    -0.13700
C1108       C  0.81325062  0.30363481  0.11056845    -0.00100
C1109       C  0.85291732  0.30340243  0.11043105    -0.12300
C1110       C  0.88822032  0.33124980  0.13271125     0.02400
C1111       C  0.88104073  0.35859736  0.15571505    -0.11700
H1112       H  0.77668356  0.33005605  0.13443431     0.08000
H1113       H  0.85549930  0.28190513  0.09205187     0.05500
H1114       H  0.90582234  0.38064643  0.17346011     0.05400
C1115       C  0.78945078  0.39855798  0.22442170     0.85800
C1116       C  0.79601696  0.43582109  0.20036511    -0.54500
C1117       C  0.83463037  0.45413817  0.18214316     0.08700
C1118       C  0.86297437  0.43268606  0.18973293     0.19700
C1119       C  0.79347236  0.36593956  0.20070887    -0.55200
C1120       C  0.83187434  0.38358486  0.18235896     0.08800
C1121       C  0.83011006  0.41846970  0.24662551    -0.54700
C1122       C  0.86833399  0.43500402  0.22945882     0.09400
H1123       H  0.77240734  0.44676773  0.19784880     0.13900
H1124       H  0.89420750  0.44736609  0.17508777    -0.00400
H1125       H  0.76824367  0.33180137  0.19879199     0.14200
H1126       H  0.82876494  0.42155182  0.27404360     0.14000
C1127       C  0.60402150  0.20482131  0.22402331     0.85800
C1128       C  0.63479918  0.19814063  0.20016828    -0.54500
C1129       C  0.61439071  0.15955563  0.18191973     0.08700
C1130       C  0.56459365  0.13119446  0.18944613     0.19700
C1131       C  0.56752429  0.20076058  0.20004285    -0.55200
C1132       C  0.54673483  0.16230028  0.18178203     0.08800
C1133       C  0.58306780  0.16419789  0.24628432    -0.54700
C1134       C  0.56148163  0.12591019  0.22919611     0.09400
H1135       H  0.66938432  0.22174376  0.19762424     0.13900
H1136       H  0.54804669  0.09993852  0.17484182    -0.00400
H1137       H  0.55873107  0.22602685  0.19788784     0.14200
H1138       H  0.58736080  0.16565066  0.27371726     0.14000
C1139       C  0.59567469  0.39075982  0.22401504     0.85800
C1140       C  0.55860394  0.36038844  0.19967109    -0.54500
C1141       C  0.54041779  0.38098552  0.18164123     0.08700
C1142       C  0.56170600  0.43060085  0.18971989     0.19700
C1143       C  0.62840062  0.42782486  0.20059556    -0.55200
C1144       C  0.61082037  0.44870352  0.18236792     0.08800
C1145       C  0.57540310  0.41091509  0.24642524    -0.54700
C1146       C  0.55896396  0.43286337  0.22949908     0.09400
H1147       H  0.54772889  0.32588414  0.19679489     0.13900
H1148       H  0.54709548  0.44732870  0.17522781    -0.00400
H1149       H  0.66251295  0.43669872  0.19857777     0.14200
H1150       H  0.57182791  0.40565269  0.27376011     0.14000
Fe1151     Fe  0.69551426  0.30051350  0.29803754     1.65800
Fe1152     Fe  0.59924792  0.29872898  0.29745775     1.73200
Fe1153     Fe  0.69374246  0.39492824  0.29778862     1.54400
O1154       O  0.74281021  0.40007390  0.33012842    -0.82400
O1155       O  0.59640201  0.33058745  0.25300089    -0.80700
O1156       O  0.72962240  0.33299295  0.34244668    -0.84900
O1157       O  0.74418919  0.34564952  0.26598685    -0.79700
O1158       O  0.66128589  0.39683664  0.34196776    -0.81500
O1159       O  0.59605122  0.25023976  0.26526959    -0.84300
C1160       C  0.75046913  0.37875275  0.24837137     0.96500
C1161       C  0.75019572  0.37391628  0.34752655     1.03900
O1162       O  0.66282491  0.33136510  0.29777136    -1.13200
O1163       O  0.59699471  0.26422609  0.34174540    -0.75700
O1164       O  0.65122308  0.25132564  0.33004719    -0.79200
O1165       O  0.72877924  0.39797214  0.25356103    -0.79900
C1166       C  0.61735797  0.24372808  0.34703942     0.95400
O1167       O  0.66392511  0.26546848  0.25359191    -0.77800
O1168       O  0.59413188  0.34298666  0.32959801    -0.83000
C1169       C  0.61558682  0.37151725  0.24782935     0.98000
C1170       C  0.62035992  0.37663874  0.34693625     1.03900
O1171       O  0.64868179  0.39832885  0.26547892    -0.78600
C1172       C  0.62304384  0.24386888  0.24799365     1.02200
C1173       C  0.51171639  0.15340908  0.15625094     0.02400
C1174       C  0.97251296  0.11306283  0.15516893    -0.13700
C1175       C  0.93757156  0.10619803  0.13274763    -0.00100
C1176       C  0.94469641  0.14167761  0.11078112    -0.12300
C1177       C  0.98486873  0.18109952  0.11040864     0.02400
C1178       C  0.51766431  0.18668515  0.13350044    -0.11700
H1179       H  0.96996531  0.08804123  0.17257497     0.08000
H1180       H  0.92008320  0.13943499  0.09308737     0.05500
H1181       H  0.54834637  0.21736705  0.13370439     0.05400
C1182       C  0.82159388  0.01495675  0.10690161     0.02400
C1183       C  0.81393478  0.48278756  0.13136127    -0.13700
C1184       C  0.84544185  0.48910627  0.15605130    -0.00100
C1185       C  0.88543123  0.02876801  0.15648964    -0.12300
C1186       C  0.89445419  0.06282305  0.13222704     0.02400
C1187       C  0.86134038  0.05460398  0.10736107    -0.11700
H1188       H  0.78303175  0.45229612  0.13108054     0.08000
H1189       H  0.90816635  0.03249846  0.17666520     0.05500
H1190       H  0.86578250  0.07775176  0.08734616     0.05400
C1191       C  0.93754793  0.37184335  0.55717898     0.85800
C1192       C  0.96841351  0.36472374  0.53370710    -0.54500
C1193       C  0.94799049  0.32610611  0.51544318     0.08700
C1194       C  0.89803062  0.29821670  0.52254457     0.19700
C1195       C  0.90156570  0.36816845  0.53282639    -0.55200
C1196       C  0.88068377  0.32974590  0.51452196     0.08800
C1197       C  0.91588238  0.33123298  0.57940999    -0.54700
C1198       C  0.89436162  0.29295253  0.56231007     0.09400
H1199       H  0.50307732  0.38812550  0.53137849     0.13900
H1200       H  0.88141769  0.26696553  0.50794162    -0.00400
H1201       H  0.89299244  0.39358926  0.53062089     0.14200
H1202       H  0.91948014  0.33266862  0.60689359     0.14000
C1203       C  0.92851032  0.05770066  0.55711574     0.85800
C1204       C  0.89037356  0.02685241  0.53371083    -0.54500
C1205       C  0.87220664  0.04732054  0.51549282     0.08700
C1206       C  0.89433290  0.09720445  0.52252554     0.19700
C1207       C  0.96079341  0.09360586  0.53267969    -0.55200
C1208       C  0.94314985  0.11439996  0.51435339     0.08800
C1209       C  0.90979313  0.07951791  0.57933745    -0.54700
C1210       C  0.89289619  0.10093175  0.56227784     0.09400
H1211       H  0.87908661  0.49221037  0.53129699     0.13900
H1212       H  0.87963966  0.11377127  0.50791408    -0.00400
H1213       H  0.99476881  0.10209824  0.53034963     0.14200
H1214       H  0.90794716  0.07615731  0.60679813     0.14000
C1215       C  0.62262069  0.06612030  0.55712868     0.85800
C1216       C  0.62993918  0.10423869  0.53372056    -0.54500
C1217       C  0.66860403  0.12240134  0.51553618     0.08700
C1218       C  0.69635840  0.10027642  0.52268602     0.19700
C1219       C  0.62620711  0.03382502  0.53274865    -0.55200
C1220       C  0.66472331  0.05144763  0.51452088     0.08800
C1221       C  0.66314682  0.08486554  0.57947718    -0.54700
C1222       C  0.70150465  0.10171073  0.56243970     0.09400
H1223       H  0.60660502  0.11554403  0.53129356     0.13900
H1224       H  0.72765876  0.11497425  0.50813620    -0.00400
H1225       H  0.60067655  0.49985571  0.53041096     0.14200
H1226       H  0.66156327  0.08682840  0.60685493     0.14000
Fe1227     Fe  0.52895713  0.46781008  0.63109353     1.65800
Fe1228     Fe  0.93267677  0.46582847  0.63070066     1.73200
Fe1229     Fe  0.52704798  0.06206015  0.63084340     1.54400
O1230       O  0.57679393  0.06738354  0.66277536    -0.82400
O1231       O  0.92961903  0.49759196  0.58616165    -0.80700
O1232       O  0.56301136  0.50027251  0.67562518    -0.84900
O1233       O  0.57754879  0.01322111  0.59892330    -0.79700
O1234       O  0.99480591  0.06359920  0.67542216    -0.81500
O1235       O  0.92951348  0.41717691  0.59859893    -0.84300
C1236       C  0.58356792  0.04615919  0.58113314     0.96500
C1237       C  0.58399121  0.04124473  0.68045705     1.03900
O1238       O  0.99621099  0.49854124  0.63083855    -1.13200
O1239       O  0.93074283  0.43171536  0.67519578    -0.75700
O1240       O  0.98459112  0.41839332  0.66317086    -0.79200
O1241       O  0.56157716  0.06509361  0.58622510    -0.79900
C1242       C  0.95096555  0.41107417  0.68045704     0.95400
O1243       O  0.99743420  0.43284670  0.58657105    -0.77800
O1244       O  0.92757362  0.01008590  0.66280293    -0.83000
C1245       C  0.94850277  0.03855639  0.58111359     0.98000
C1246       C  0.95384515  0.04343162  0.68042071     1.03900
O1247       O  0.98152555  0.06541803  0.59885456    -0.78600
C1248       C  0.95652466  0.41093787  0.58118256     1.02200
C1249       C  0.67350697  0.02529798  0.48894436     0.02400
C1250       C  0.71394627  0.02669745  0.48775170    -0.13700
C1251       C  0.72079222  0.99850875  0.46552337    -0.00100
C1252       C  0.68537605  0.46995792  0.44369266    -0.12300
C1253       C  0.64592446  0.47051698  0.44326848     0.02400
C1254       C  0.64017661  0.99769240  0.46629438    -0.11700
H1255       H  0.73914193  0.04952411  0.50487089     0.08000
H1256       H  0.68771394  0.44752453  0.42616874     0.05500
H1257       H  0.60940514  0.99747506  0.46648978     0.05400
C1258       C  0.81289798  0.47547207  0.43902527     0.02400
C1259       C  0.77297854  0.47502961  0.43960390    -0.13700
C1260       C  0.76419436  0.49897455  0.46496011    -0.00100
C1261       C  0.79766923  0.02320151  0.48979544    -0.12300
C1262       C  0.83766813  0.02367197  0.48906389     0.02400
C1263       C  0.84486622  0.49994109  0.46363592    -0.11700
H1264       H  0.75002387  0.45660804  0.41938831     0.08000
H1265       H  0.79319439  0.04092481  0.51061716     0.05500
H1266       H  0.87567358  0.50020598  0.46319671     0.05400
C1267       C  0.52444493  0.17606159  0.44321923     0.02400
C1268       C  0.49684350  0.14319729  0.46613575    -0.13700
C1269       C  0.96929675  0.14913474  0.48861044    -0.00100
C1270       C  0.96818751  0.18827341  0.48730410    -0.12300
C1271       C  0.99676045  0.22337398  0.46525203     0.02400
C1272       C  0.52540622  0.21636304  0.44358191    -0.11700
H1273       H  0.49676489  0.11250519  0.46647105     0.08000
H1274       H  0.94533644  0.19067167  0.50432191     0.05500
H1275       H  0.54812047  0.24120309  0.42616911     0.05400
C1276       C  0.97191314  0.31530761  0.48913148     0.02400
C1277       C  0.97182687  0.27547207  0.48947303    -0.13700
C1278       C  0.99657716  0.26649220  0.46491090    -0.00100
C1279       C  0.52117410  0.29960396  0.43997706    -0.12300
C1280       C  0.52090452  0.33915786  0.43957080     0.02400
C1281       C  0.99648712  0.34665604  0.46418135    -0.11700
H1282       H  0.95329494  0.25286200  0.50986231     0.08000
H1283       H  0.53981144  0.29519834  0.41989032     0.05500
H1284       H  0.99660930  0.37739120  0.46389868     0.05400
C1285       C  0.84556288  0.32108726  0.48909490     0.02400
C1286       C  0.80637862  0.28075286  0.48788370    -0.13700
C1287       C  0.77122341  0.27414881  0.46582160    -0.00100
C1288       C  0.77805819  0.30987345  0.44429520    -0.12300
C1289       C  0.81823637  0.34935035  0.44397659     0.02400
C1290       C  0.85125183  0.35464840  0.46674539    -0.11700
H1291       H  0.80404192  0.25543598  0.50483872     0.08000
H1292       H  0.75316980  0.30767922  0.42691249     0.05500
H1293       H  0.88193468  0.38532517  0.46697737     0.05400
C1294       C  0.67952027  0.15698885  0.48910898     0.02400
C1295       C  0.64845928  0.14992686  0.46380504    -0.13700
C1296       C  0.65597428  0.18191177  0.43919914     0.04700
C1297       C  0.69542082  0.22194012  0.43986784    -0.12300
C1298       C  0.72826262  0.23064828  0.46514762     0.02400
C1299       C  0.71916148  0.19694221  0.48976153    -0.11700
H1300       H  0.61785101  0.11913831  0.46337546     0.08000
H1301       H  0.69993600  0.24503319  0.41975986     0.05500
H1302       H  0.74151260  0.20123546  0.51043770     0.05400
C1303       C  0.55657848  0.43143021  0.37318842     0.85800
C1304       C  0.52496987  0.39138668  0.39449349    -0.54500
C1305       C  0.54501842  0.37321493  0.41302351     0.08700
C1306       C  0.59512742  0.39635272  0.40769635     0.19700
C1307       C  0.59026920  0.46259080  0.39948071    -0.55200
C1308       C  0.61106538  0.44464864  0.41750410     0.08800
C1309       C  0.58191835  0.41648143  0.35101498    -0.54700
C1310       C  0.60108237  0.39723882  0.36802518     0.09400
H1311       H  0.99012677  0.37952075  0.39607314     0.13900
H1312       H  0.61130551  0.38125428  0.42229720    -0.00400
H1313       H  0.59802159  0.99623798  0.40267831     0.14200
H1314       H  0.58591952  0.42233490  0.32375601     0.14000
C1315       C  0.56311120  0.12514670  0.37321284     0.85800
C1316       C  0.60349415  0.13380417  0.39415633    -0.54500
C1317       C  0.62181622  0.17202386  0.41268509     0.08700
C1318       C  0.59849089  0.19887759  0.40767496     0.19700
C1319       C  0.53222949  0.12765179  0.39986477    -0.55200
C1320       C  0.55030279  0.16656792  0.41775746     0.08800
C1321       C  0.57764794  0.16545928  0.35108668    -0.54700
C1322       C  0.59690434  0.20386328  0.36809519     0.09400
H1323       H  0.61543673  0.11089896  0.39555910     0.13900
H1324       H  0.61375832  0.23020992  0.42218666    -0.00400
H1325       H  0.99857178  0.10176410  0.40316941     0.14200
H1326       H  0.57152985  0.16365148  0.32387291     0.14000
C1327       C  0.86895337  0.43822100  0.37336929     0.85800
C1328       C  0.86064306  0.47033647  0.39404804    -0.54500
C1329       C  0.82251323  0.45078815  0.41273276     0.08700
C1330       C  0.79539271  0.40050289  0.40814538     0.19700
C1331       C  0.86642337  0.40509985  0.40029308    -0.55200
C1332       C  0.82763934  0.38458740  0.41837484     0.08800
C1333       C  0.82846804  0.41229817  0.35145568    -0.54700
C1334       C  0.79012949  0.39348657  0.36858417     0.09400
H1335       H  0.88371161  0.00519324  0.39516029     0.13900
H1336       H  0.76414710  0.38467648  0.42280587    -0.00400
H1337       H  0.89219166  0.39719534  0.40362067     0.14200
H1338       H  0.83008452  0.40757780  0.32429081     0.14000
Fe1339     Fe  0.96582351  0.03127640  0.29956294     1.65800
Fe1340     Fe  0.96281355  0.43409189  0.30004536     1.73200
Fe1341     Fe  0.56006977  0.02853632  0.29973077     1.54400
O1342       O  0.56640098  0.07705430  0.26676056    -0.82400
O1343       O  0.99595942  0.43076342  0.34363018    -0.80700
O1344       O  0.00006293  0.06684590  0.25592996    -0.84900
O1345       O  0.50958309  0.07852960  0.33276472    -0.79700
O1346       O  0.56142470  0.49425529  0.25621240    -0.81500
O1347       O  0.91546878  0.43070654  0.33314804    -0.84300
C1348       C  0.54360177  0.08594734  0.34938756     0.96500
C1349       C  0.54088918  0.08590027  0.25014820     1.03900
O1350       O  0.99621645  0.49794180  0.29979791    -1.13200
O1351       O  0.92697494  0.43222035  0.25645456    -0.75700
O1352       O  0.91755249  0.48898903  0.26653503    -0.79200
O1353       O  0.56381733  0.06532103  0.34329967    -0.79900
C1354       C  0.90834944  0.45431049  0.25031375     0.95400
O1355       O  0.92886473  0.49831073  0.34309818    -0.77800
O1356       O  0.50520200  0.42787902  0.26716198    -0.83000
C1357       C  0.53686619  0.45087048  0.34948997     0.98000
C1358       C  0.53961374  0.45339854  0.25053907     1.03900
O1359       O  0.56349406  0.48476174  0.33278004    -0.78600
C1360       C  0.90810847  0.45751219  0.34945981     1.02200
C1361       C  0.89583209  0.29243209  0.70685411     0.85800
C1362       C  0.93589113  0.30073436  0.72812252    -0.54500
C1363       C  0.95437771  0.33896226  0.74667225     0.08700
C1364       C  0.93142603  0.36614327  0.74138463     0.19700
C1365       C  0.86483944  0.29517527  0.73327741    -0.55200
C1366       C  0.88306067  0.33399464  0.75130762     0.08800
C1367       C  0.91099401  0.33281724  0.68472474    -0.54700
C1368       C  0.93034504  0.37123342  0.70170063     0.09400
H1369       H  0.94760866  0.27765401  0.72959519     0.13900
H1370       H  0.94676316  0.39744721  0.75593623    -0.00400
H1371       H  0.83112788  0.26938605  0.73653681     0.14200
H1372       H  0.90551049  0.33106261  0.65743672     0.14000
C1373       C  0.70282068  0.10484245  0.70705046     0.85800
C1374       C  0.69473155  0.13668714  0.72830507    -0.54500
C1375       C  0.65649734  0.11693935  0.74686793     0.08700
C1376       C  0.62905376  0.06678627  0.74150063     0.19700
C1377       C  0.69992792  0.07105112  0.73345563    -0.55200
C1378       C  0.66110407  0.05050068  0.75144809     0.08800
C1379       C  0.66241936  0.07976592  0.68485337    -0.54700
C1380       C  0.62391396  0.06069100  0.70179513     0.09400
H1381       H  0.71798650  0.17146650  0.72986080     0.13900
H1382       H  0.59774969  0.05081969  0.75607467    -0.00400
H1383       H  0.72564714  0.06307427  0.73678517     0.14200
H1384       H  0.66429199  0.07606081  0.65769075     0.14000
C1385       C  0.89060336  0.09875906  0.70695967     0.85800
C1386       C  0.85887483  0.05895130  0.72848013    -0.54500
C1387       C  0.87869474  0.04050241  0.74701367     0.08700
C1388       C  0.92880169  0.06317551  0.74144338     0.19700
C1389       C  0.92472293  0.12982649  0.73315700    -0.55200
C1390       C  0.94529055  0.11158888  0.75118726     0.08800
C1391       C  0.91534809  0.08316369  0.68479532    -0.54700
C1392       C  0.93453501  0.06389344  0.70172391     0.09400
H1393       H  0.82410615  0.04742693  0.73014719     0.13900
H1394       H  0.94481752  0.04787540  0.75600037    -0.00400
H1395       H  0.93279953  0.16356115  0.73639020     0.14200
H1396       H  0.91861784  0.08826541  0.65749909     0.14000
Fe1397     Fe  0.79882630  0.19825910  0.63292898     1.65800
Fe1398     Fe  0.79655468  0.10125563  0.63316036     1.73200
Fe1399     Fe  0.89355295  0.19608797  0.63323573     1.54400
O1400       O  0.89933133  0.24405108  0.59979655    -0.82400
O1401       O  0.83021452  0.09755384  0.67638708    -0.80700
O1402       O  0.83301980  0.23425642  0.58945380    -0.84900
O1403       O  0.84225740  0.24562182  0.66634692    -0.79700
O1404       O  0.89561201  0.16193646  0.58988306    -0.81500
O1405       O  0.74968201  0.09766984  0.66694594    -0.84300
C1406       C  0.87640177  0.25328369  0.68290612     0.96500
C1407       C  0.87376306  0.25300523  0.58335708     1.03900
O1408       O  0.82963296  0.16517173  0.63310974    -1.13200
O1409       O  0.75998327  0.09907204  0.58995301    -0.75700
O1410       O  0.75066481  0.15594739  0.59964774    -0.79200
O1411       O  0.89695171  0.23304461  0.67660547    -0.79900
C1412       C  0.74142663  0.12114964  0.58356232     0.95400
O1413       O  0.76194719  0.16501558  0.67638067    -0.77800
O1414       O  0.83859547  0.09561063  0.59946622    -0.83000
C1415       C  0.87094956  0.11830167  0.68302741     0.98000
C1416       C  0.87341570  0.12131284  0.58337250     1.03900
O1417       O  0.89747153  0.15273630  0.66678841    -0.78600
C1418       C  0.74194777  0.12431856  0.68312469     1.02200
C1419       C  0.80535423  0.48277754  0.82317002     0.02400
C1420       C  0.80594650  0.44331376  0.82416478    -0.13700
C1421       C  0.83088177  0.43433444  0.79983833    -0.00100
C1422       C  0.85532848  0.46728822  0.77471038    -0.12300
C1423       C  0.85443479  0.00652212  0.77368041     0.02400
C1424       C  0.82950101  0.01383707  0.79791049    -0.11700
H1425       H  0.78762980  0.42093471  0.84475075     0.08000
H1426       H  0.87436621  0.46305446  0.75490570     0.05500
H1427       H  0.82906804  0.04428376  0.79722741     0.05400
C1428       C  0.85752566  0.34336142  0.77722798     0.02400
C1429       C  0.85893383  0.38382791  0.77805944    -0.13700
C1430       C  0.83107379  0.39121804  0.80035028    -0.00100
C1431       C  0.80299633  0.35633940  0.82280968    -0.12300
C1432       C  0.80342381  0.31681730  0.82344195     0.02400
C1433       C  0.83008668  0.31048585  0.80023971    -0.11700
H1434       H  0.88135940  0.40848109  0.76041269     0.08000
H1435       H  0.78095834  0.35909975  0.84053385     0.05500
H1436       H  0.82953144  0.27955608  0.80017155     0.05400
C1437       C  0.65175346  0.01555388  0.77729230     0.02400
C1438       C  0.68445778  0.02128081  0.80061249    -0.13700
C1439       C  0.67865676  0.48783532  0.82317548    -0.00100
C1440       C  0.63962275  0.44732860  0.82170796    -0.12300
C1441       C  0.60471383  0.44040494  0.79916485     0.02400
C1442       C  0.61177268  0.47594780  0.77735320    -0.11700
H1443       H  0.71499188  0.05210297  0.80101636     0.08000
H1444       H  0.63719208  0.42220977  0.83893170     0.05500
H1445       H  0.58728448  0.47355807  0.75944899     0.05400
C1446       C  0.51299532  0.32304489  0.82206049     0.02400
C1447       C  0.98147374  0.31651667  0.79734194    -0.13700
C1448       C  0.98873795  0.34874705  0.77305622    -0.00100
C1449       C  0.52830972  0.38868729  0.77368495    -0.12300
C1450       C  0.56168309  0.39688833  0.79837348     0.02400
C1451       C  0.55292139  0.36272250  0.82242287    -0.11700
H1452       H  0.95070989  0.28588506  0.79707131     0.08000
H1453       H  0.53240277  0.41208201  0.75399750     0.05500
H1454       H  0.57573372  0.36642673  0.84251260     0.05400
C1455       C  0.64688654  0.14131571  0.77344953     0.02400
C1456       C  0.67889265  0.16575415  0.79806109    -0.13700
C1457       C  0.67214186  0.19034509  0.82299728    -0.00100
C1458       C  0.63241984  0.19045771  0.82337743    -0.12300
C1459       C  0.59858431  0.16560163  0.79893370     0.02400
C1460       C  0.60708264  0.14107255  0.77395663    -0.11700
H1461       H  0.70950639  0.16562337  0.79780359     0.08000
H1462       H  0.62846630  0.20911879  0.84368729     0.05500
H1463       H  0.58400067  0.12233588  0.75392411     0.05400
C1464       C  0.50754583  0.19128274  0.82333383     0.02400
C1465       C  0.97423150  0.16379209  0.80060266    -0.13700
C1466       C  0.98015460  0.13712307  0.77715097    -0.00100
C1467       C  0.51978814  0.13684727  0.77733757    -0.12300
C1468       C  0.55509390  0.16503921  0.79949284     0.02400
C1469       C  0.54799264  0.19272064  0.82211769    -0.11700
H1470       H  0.94340669  0.16345929  0.80092211     0.08000
H1471       H  0.52232561  0.11496848  0.75933485     0.05500
H1472       H  0.57297412  0.21523360  0.83952474     0.05400
C1473       C  0.76264689  0.22480379  0.89138034     0.85800
C1474       C  0.72508885  0.19397379  0.86757053    -0.54500
C1475       C  0.70677856  0.21427142  0.84932910     0.08700
C1476       C  0.72831872  0.26406674  0.85675312     0.19700
C1477       C  0.79507075  0.26129316  0.86739746    -0.55200
C1478       C  0.77732422  0.28194193  0.84907300     0.08800
C1479       C  0.74296668  0.24567407  0.91363802    -0.54700
C1480       C  0.72624162  0.26720705  0.89648563     0.09400
H1481       H  0.71409615  0.15940315  0.86509228     0.13900
H1482       H  0.71358248  0.28058762  0.84213670    -0.00400
H1483       H  0.82916603  0.27015314  0.86523469     0.14200
H1484       H  0.73989319  0.24114235  0.94105710     0.14000
C1485       C  0.77080704  0.03887088  0.89128202     0.85800
C1486       C  0.80163055  0.03217573  0.86747928    -0.54500
C1487       C  0.78129838  0.49357577  0.84924537     0.08700
C1488       C  0.73143835  0.46536350  0.85653518     0.19700
C1489       C  0.73438402  0.03493180  0.86725244    -0.55200
C1490       C  0.71365075  0.49658096  0.84882185     0.08800
C1491       C  0.74978639  0.49819803  0.91345789    -0.54700
C1492       C  0.72818910  0.45999707  0.89626648     0.09400
H1493       H  0.83625185  0.05571069  0.86505958     0.13900
H1494       H  0.71493282  0.43413827  0.84189379    -0.00400
H1495       H  0.72559753  0.06020929  0.86520117     0.14200
H1496       H  0.75414861  0.49949889  0.94088128     0.14000
C1497       C  0.95668522  0.23298900  0.89084630     0.85800
C1498       C  0.96352016  0.27036211  0.86674172    -0.54500
C1499       C  0.50211561  0.28839227  0.84845211     0.08700
C1500       C  0.53023779  0.26677674  0.85615661     0.19700
C1501       C  0.96052152  0.20026629  0.86711456    -0.55200
C1502       C  0.49889253  0.21769645  0.84874822     0.08800
C1503       C  0.99730741  0.25275691  0.91305625    -0.54700
C1504       C  0.53552803  0.26922994  0.89591764     0.09400
H1505       H  0.94006357  0.28149121  0.86415752     0.13900
H1506       H  0.56149134  0.28131014  0.84154212    -0.00400
H1507       H  0.93515503  0.16618792  0.86519688     0.14200
H1508       H  0.99594411  0.25579874  0.94050818     0.14000
Fe1509     Fe  0.86132615  0.22930064  0.96471161     1.65800
Fe1510     Fe  0.86271202  0.13466965  0.96467466     1.73200
Fe1511     Fe  0.76675823  0.13313346  0.96486244     1.54400
O1512       O  0.76187499  0.17758828  0.99672489    -0.82400
O1513       O  0.83089318  0.09985877  0.92031459    -0.80700
O1514       O  0.82911058  0.23123787  0.00908742    -0.84900
O1515       O  0.81598853  0.23270339  0.93269697    -0.79700
O1516       O  0.76499738  0.09921019  0.00939785    -0.81500
O1517       O  0.91135867  0.17996405  0.93245598    -0.84300
C1518       C  0.78274542  0.20577040  0.91521862     0.96500
C1519       C  0.78816418  0.21117571  0.01403462     1.03900
O1520       O  0.83028463  0.16572821  0.96470146    -1.13200
O1521       O  0.89683457  0.16681815  0.00897533    -0.75700
O1522       O  0.91056429  0.23412188  0.99674673    -0.79200
O1523       O  0.76370203  0.16482640  0.92039887    -0.79900
C1524       C  0.91764668  0.20768718  0.01407759     0.95400
O1525       O  0.89612684  0.23246846  0.92025107    -0.77800
O1526       O  0.81838708  0.08539194  0.99688114    -0.83000
C1527       C  0.78993891  0.07792525  0.91524959     0.98000
C1528       C  0.78494205  0.07824238  0.01435629     1.03900
O1529       O  0.76313007  0.08418621  0.93291274    -0.78600
C1530       C  0.91771110  0.21317500  0.91489696     1.02200
C1531       C  0.72420162  0.76576724  0.04026497     0.85800
C1532       C  0.69226879  0.72535439  0.06106269    -0.54500
C1533       C  0.71193381  0.70685396  0.07961815     0.08700
C1534       C  0.76215350  0.72998218  0.07470206     0.19700
C1535       C  0.75755747  0.79644948  0.06701244    -0.55200
C1536       C  0.77817643  0.77814682  0.08487531     0.08800
C1537       C  0.74998642  0.75130116  0.01812808    -0.54700
C1538       C  0.76883841  0.73170140  0.03510834     0.09400
H1539       H  0.65742556  0.71356499  0.06241392     0.13900
H1540       H  0.77808794  0.71459461  0.08925186    -0.00400
H1541       H  0.76542145  0.83009151  0.07047703     0.14200
H1542       H  0.75466170  0.75787652  0.99097724     0.14000
C1543       C  0.53608947  0.77071016  0.04040928     0.85800
C1544       C  0.52791765  0.80246090  0.06167437    -0.54500
C1545       C  0.98965578  0.78269681  0.08017964     0.08700
C1546       C  0.96233758  0.73258875  0.07486113     0.19700
C1547       C  0.53318593  0.73682887  0.06674742    -0.55200
C1548       C  0.99431356  0.71620282  0.08470143     0.08800
C1549       C  0.99578705  0.74562999  0.01821083    -0.54700
C1550       C  0.95738425  0.72667334  0.03520630     0.09400
H1551       H  0.55109741  0.83726340  0.06316571     0.13900
H1552       H  0.93098147  0.71657643  0.08936840    -0.00400
H1553       H  0.55886605  0.72877647  0.06997685     0.14200
H1554       H  0.99756413  0.74185732  0.99088835     0.14000
C1555       C  0.72925974  0.95938048  0.04032327     0.85800
C1556       C  0.76916461  0.96740173  0.06166159    -0.54500
C1557       C  0.78760653  0.50549020  0.08034151     0.08700
C1558       C  0.76493429  0.53289182  0.07504930     0.19700
C1559       C  0.69825024  0.96207087  0.06666175    -0.55200
C1560       C  0.71652550  0.50077907  0.08474033     0.08800
C1561       C  0.74457458  0.99989700  0.01828337    -0.54700
C1562       C  0.76411868  0.53824142  0.03539343     0.09400
H1563       H  0.78070963  0.94418584  0.06317164     0.13900
H1564       H  0.78024161  0.56409637  0.08974409    -0.00400
H1565       H  0.66448315  0.93636990  0.06983727     0.14200
H1566       H  0.73876991  0.99829477  0.99103705     0.14000
Fe1567     Fe  0.63224661  0.86512123  0.96668346     1.65800
Fe1568     Fe  0.72706647  0.86294793  0.96684738     1.73200
Fe1569     Fe  0.62999634  0.76797570  0.96670173     1.54400
O1570       O  0.58330802  0.76402860  0.00060104    -0.82400
O1571       O  0.72922196  0.82826471  0.92399403    -0.80700
O1572       O  0.59464526  0.83110508  0.00961617    -0.84900
O1573       O  0.58487240  0.82349410  0.93277806    -0.79700
O1574       O  0.66380703  0.76410500  0.00962245    -0.81500
O1575       O  0.73295748  0.91040391  0.93295854    -0.84300
C1576       C  0.57539703  0.78851448  0.91693094     0.96500
C1577       C  0.57517006  0.79046866  0.01656407     1.03900
O1578       O  0.66309953  0.83201060  0.96677792    -1.13200
O1579       O  0.73075867  0.90060572  0.00971099    -0.75700
O1580       O  0.67506572  0.91198132  0.00057946    -0.79200
O1581       O  0.59335027  0.76597482  0.92369493    -0.79900
C1582       C  0.70976542  0.92025033  0.01649904     0.95400
O1583       O  0.66694933  0.90196955  0.92378034    -0.77800
O1584       O  0.73086669  0.82010853  0.00081804    -0.83000
C1585       C  0.70680142  0.78771549  0.91732848     0.98000
C1586       C  0.70444736  0.78525469  0.01656391     1.03900
O1587       O  0.67165979  0.76215233  0.93299458    -0.78600
C1588       C  0.70750625  0.92001187  0.91714846     1.02200
C1589       C  0.63818592  0.64889505  0.15552351     0.02400
C1590       C  0.63801685  0.60909755  0.15600222    -0.13700
C1591       C  0.66277276  0.60006891  0.13160234    -0.00100
C1592       C  0.68738668  0.63306044  0.10654734    -0.12300
C1593       C  0.68731715  0.67269218  0.10604059     0.02400
C1594       C  0.66280601  0.68023173  0.13055360    -0.11700
H1595       H  0.61940239  0.58657300  0.17640651     0.08000
H1596       H  0.70609686  0.62868371  0.08652942     0.05500
H1597       H  0.66298990  0.71099348  0.13025224     0.05400
C1598       C  0.69091524  0.51004814  0.11044515     0.02400
C1599       C  0.66414034  0.97746455  0.13389164    -0.13700
C1600       C  0.63692280  0.98350803  0.15667455    -0.00100
C1601       C  0.63553220  0.52250323  0.15524203    -0.12300
C1602       C  0.66318557  0.55714933  0.13241864     0.02400
C1603       C  0.69131964  0.54996179  0.11039701    -0.11700
H1604       H  0.66433133  0.94690669  0.13427793     0.08000
H1605       H  0.61310543  0.52503880  0.17266061     0.05500
H1606       H  0.71326756  0.57432496  0.09233835     0.05400
C1607       C  0.97991849  0.80724783  0.10648386     0.02400
C1608       C  0.51228870  0.83242704  0.13055868    -0.13700
C1609       C  0.50577421  0.85732242  0.15528343    -0.00100
C1610       C  0.96607285  0.85745609  0.15575436    -0.12300
C1611       C  0.93175692  0.83182869  0.13188278     0.02400
C1612       C  0.93986761  0.80656916  0.10729116    -0.11700
H1613       H  0.54298474  0.83245698  0.13017537     0.08000
H1614       H  0.96252426  0.87670312  0.17576000     0.05500
H1615       H  0.91630108  0.78689205  0.08784590     0.05400
C1616       C  0.84068317  0.85738781  0.15689952     0.02400
C1617       C  0.80744505  0.83025407  0.13407109    -0.13700
C1618       C  0.81325160  0.80363758  0.11057201    -0.00100
C1619       C  0.85291747  0.80340438  0.11043485    -0.12300
C1620       C  0.88821825  0.83124694  0.13271814     0.02400
C1621       C  0.88103782  0.85859139  0.15572449    -0.11700
H1622       H  0.77668331  0.83005674  0.13443953     0.08000
H1623       H  0.85550037  0.78191017  0.09205311     0.05500
H1624       H  0.90581848  0.88063785  0.17347136     0.05400
C1625       C  0.78945214  0.89856137  0.22442609     0.85800
C1626       C  0.79601908  0.93582214  0.20036616    -0.54500
C1627       C  0.83463295  0.95413660  0.18214441     0.08700
C1628       C  0.86297596  0.93268443  0.18973787     0.19700
C1629       C  0.79347334  0.86594025  0.20071640    -0.55200
C1630       C  0.83187488  0.88358284  0.18236673     0.08800
C1631       C  0.83011149  0.91847613  0.24663050    -0.54700
C1632       C  0.86833559  0.93500709  0.22946385     0.09400
H1633       H  0.77241001  0.94676909  0.19784753     0.13900
H1634       H  0.89420903  0.94736201  0.17509274    -0.00400
H1635       H  0.76824380  0.83180229  0.19880045     0.14200
H1636       H  0.82876638  0.92156455  0.27404790     0.14000
C1637       C  0.60402255  0.70481935  0.22402511     0.85800
C1638       C  0.63479894  0.69814121  0.20016741    -0.54500
C1639       C  0.61438952  0.65955760  0.18191737     0.08700
C1640       C  0.56459280  0.63119483  0.18944526     0.19700
C1641       C  0.56752340  0.70075953  0.20004717    -0.55200
C1642       C  0.54673275  0.66230038  0.18178491     0.08800
C1643       C  0.58307140  0.66419452  0.24628480    -0.54700
C1644       C  0.56148343  0.62590780  0.22919523     0.09400
H1645       H  0.66938408  0.72174432  0.19762339     0.13900
H1646       H  0.54804547  0.59993984  0.17483968    -0.00400
H1647       H  0.55873008  0.72602590  0.19789473     0.14200
H1648       H  0.58736802  0.66564539  0.27371770     0.14000
C1649       C  0.59566727  0.89075430  0.22401875     0.85800
C1650       C  0.55859564  0.86038294  0.19967515    -0.54500
C1651       C  0.54041100  0.88098061  0.18164418     0.08700
C1652       C  0.56170145  0.93059697  0.18972179     0.19700
C1653       C  0.62839389  0.92781759  0.20059831    -0.55200
C1654       C  0.61081550  0.94869719  0.18236960     0.08800
C1655       C  0.57539702  0.91091198  0.24642816    -0.54700
C1656       C  0.55896033  0.93286229  0.22950126     0.09400
H1657       H  0.54771951  0.82587831  0.19679935     0.13900
H1658       H  0.54709208  0.94732532  0.17522882    -0.00400
H1659       H  0.66250586  0.93669002  0.19858109     0.14200
H1660       H  0.57181974  0.90564877  0.27376309     0.14000
Fe1661     Fe  0.69551479  0.80051183  0.29803884     1.65800
Fe1662     Fe  0.59924679  0.79872540  0.29745783     1.73200
Fe1663     Fe  0.69373856  0.89492351  0.29779179     1.54400
O1664       O  0.74280975  0.90007035  0.33012822    -0.82400
O1665       O  0.59640086  0.83058123  0.25299934    -0.80700
O1666       O  0.72962279  0.83299029  0.34244858    -0.84900
O1667       O  0.74419054  0.84565212  0.26599048    -0.79700
O1668       O  0.66128264  0.89682535  0.34197390    -0.81500
O1669       O  0.59605251  0.75023511  0.26527290    -0.84300
C1670       C  0.75046929  0.87875509  0.24837491     0.96500
C1671       C  0.75019672  0.87391407  0.34752671     1.03900
O1672       O  0.66282367  0.83136149  0.29777250    -1.13200
O1673       O  0.59699528  0.76422578  0.34174668    -0.75700
O1674       O  0.65122140  0.75132190  0.33004675    -0.79200
O1675       O  0.72877543  0.89797104  0.25356258    -0.79900
C1676       C  0.61735670  0.74372556  0.34703944     0.95400
O1677       O  0.66392709  0.76546803  0.25359224    -0.77800
O1678       O  0.59412765  0.84298517  0.32959467    -0.83000
C1679       C  0.61558034  0.87151177  0.24783290     0.98000
C1680       C  0.62035587  0.87663344  0.34693710     1.03900
O1681       O  0.64867291  0.89832298  0.26548536    -0.78600
C1682       C  0.62304544  0.74386610  0.24799581     1.02200
C1683       C  0.51171282  0.65341123  0.15625532     0.02400
C1684       C  0.97251151  0.61306422  0.15516887    -0.13700
C1685       C  0.93756798  0.60620214  0.13275083    -0.00100
C1686       C  0.94469027  0.64168490  0.11078929    -0.12300
C1687       C  0.98486306  0.68110677  0.11041679     0.02400
C1688       C  0.51765910  0.68668993  0.13350836    -0.11700
H1689       H  0.96996627  0.58803887  0.17256948     0.08000
H1690       H  0.92007471  0.63944377  0.09309871     0.05500
H1691       H  0.54834111  0.71737187  0.13371303     0.05400
C1692       C  0.82158943  0.51496106  0.10690318     0.02400
C1693       C  0.81394011  0.98278234  0.13135857    -0.13700
C1694       C  0.84544614  0.98910245  0.15604993    -0.00100
C1695       C  0.88542707  0.52877165  0.15649131    -0.12300
C1696       C  0.89445072  0.56282663  0.13222864     0.02400
C1697       C  0.86133781  0.55460723  0.10736134    -0.11700
H1698       H  0.78303783  0.95229024  0.13107716     0.08000
H1699       H  0.90816202  0.53250220  0.17666714     0.05500
H1700       H  0.86578273  0.57775394  0.08734458     0.05400
C1701       C  0.93754363  0.87183989  0.55717619     0.85800
C1702       C  0.96840666  0.86472015  0.53370209    -0.54500
C1703       C  0.94798175  0.82610223  0.51543884     0.08700
C1704       C  0.89802250  0.79821246  0.52254339     0.19700
C1705       C  0.90155889  0.86816444  0.53282664    -0.55200
C1706       C  0.88067527  0.82974167  0.51452290     0.08800
C1707       C  0.91588049  0.83122989  0.57940814    -0.54700
C1708       C  0.89435710  0.79294864  0.56230911     0.09400
H1709       H  0.50307140  0.88812491  0.53136802     0.13900
H1710       H  0.88140814  0.76696119  0.50794055    -0.00400
H1711       H  0.89298593  0.89358554  0.53062190     0.14200
H1712       H  0.91948219  0.83266658  0.60689081     0.14000
C1713       C  0.92850931  0.55769910  0.55711777     0.85800
C1714       C  0.89037662  0.52685117  0.53370942    -0.54500
C1715       C  0.87220868  0.54731875  0.51549178     0.08700
C1716       C  0.89433038  0.59720162  0.52252822     0.19700
C1717       C  0.96079309  0.59360861  0.53268458    -0.55200
C1718       C  0.94314854  0.61440150  0.51435818     0.08800
C1719       C  0.90978505  0.57950917  0.57934038    -0.54700
C1720       C  0.89288827  0.60092348  0.56228095     0.09400
H1721       H  0.87908072  0.99221093  0.53130015     0.13900
H1722       H  0.87963653  0.61376795  0.50791689    -0.00400
H1723       H  0.99476893  0.60210254  0.53035460     0.14200
H1724       H  0.90793322  0.57614231  0.60680130     0.14000
C1725       C  0.62261867  0.56611280  0.55712961     0.85800
C1726       C  0.62993635  0.60423504  0.53372597    -0.54500
C1727       C  0.66860060  0.62240184  0.51554107     0.08700
C1728       C  0.69635707  0.60027808  0.52268655     0.19700
C1729       C  0.62620653  0.53382237  0.53274450    -0.55200
C1730       C  0.66472408  0.55144999  0.51451690     0.08800
C1731       C  0.66314486  0.58485238  0.57947710    -0.54700
C1732       C  0.70150308  0.60170485  0.56244037     0.09400
H1733       H  0.60660062  0.61553871  0.53130101     0.13900
H1734       H  0.72765764  0.61497982  0.50813668    -0.00400
H1735       H  0.60067569  0.99985859  0.53041733     0.14200
H1736       H  0.66156042  0.58679734  0.60685600     0.14000
Fe1737     Fe  0.52895781  0.96780893  0.63108379     1.65800
Fe1738     Fe  0.93267593  0.96582592  0.63069601     1.73200
Fe1739     Fe  0.52704795  0.56206090  0.63084342     1.54400
O1740       O  0.57679489  0.56738801  0.66277606    -0.82400
O1741       O  0.92962010  0.99759125  0.58615699    -0.80700
O1742       O  0.56301364  0.00026653  0.67561553    -0.84900
O1743       O  0.57754901  0.51321763  0.59892982    -0.79700
O1744       O  0.99481152  0.56360793  0.67542091    -0.81500
O1745       O  0.92951254  0.91717426  0.59859584    -0.84300
C1746       C  0.58356607  0.54615213  0.58113545     0.96500
C1747       C  0.58399011  0.54125147  0.68046287     1.03900
O1748       O  0.99621005  0.99853950  0.63083429    -1.13200
O1749       O  0.93074417  0.93171264  0.67519075    -0.75700
O1750       O  0.98459139  0.91838998  0.66316167    -0.79200
O1751       O  0.56157442  0.56508632  0.58622515    -0.79900
C1752       C  0.95096744  0.91107131  0.68044997     0.95400
O1753       O  0.99743293  0.93284761  0.58656277    -0.77800
O1754       O  0.92757819  0.51009016  0.66280859    -0.83000
C1755       C  0.94850320  0.53855642  0.58111537     0.98000
C1756       C  0.95385145  0.54343889  0.68042297     1.03900
O1757       O  0.98152792  0.56541884  0.59885402    -0.78600
C1758       C  0.95652263  0.91093577  0.58117794     1.02200
C1759       C  0.67351221  0.52530529  0.48893840     0.02400
C1760       C  0.71395412  0.52670960  0.48774316    -0.13700
C1761       C  0.72080143  0.49852198  0.46551429    -0.00100
C1762       C  0.68536792  0.96994813  0.44369938    -0.12300
C1763       C  0.64591779  0.97051014  0.44327348     0.02400
C1764       C  0.64018205  0.49769790  0.46628945    -0.11700
H1765       H  0.73915018  0.54953770  0.50486146     0.08000
H1766       H  0.68770585  0.94751578  0.42617435     0.05500
H1767       H  0.60940905  0.49747741  0.46648619     0.05400
C1768       C  0.81289579  0.97547236  0.43902701     0.02400
C1769       C  0.77297063  0.97501842  0.43961226    -0.13700
C1770       C  0.76418532  0.99896172  0.46496935    -0.00100
C1771       C  0.79767753  0.52321186  0.48978730    -0.12300
C1772       C  0.83767120  0.52367130  0.48906192     0.02400
C1773       C  0.84486696  0.99994912  0.46363363    -0.11700
H1774       H  0.75001284  0.95659004  0.41940065     0.08000
H1775       H  0.79320515  0.54094076  0.51060580     0.05500
H1776       H  0.87567865  0.00022284  0.46319014     0.05400
C1777       C  0.52443929  0.67605792  0.44321840     0.02400
C1778       C  0.49683731  0.64319395  0.46613530    -0.13700
C1779       C  0.96929349  0.64913450  0.48861290    -0.00100
C1780       C  0.96818397  0.68827304  0.48730574    -0.12300
C1781       C  0.99675253  0.72337119  0.46524965     0.02400
C1782       C  0.52540135  0.71635991  0.44358098    -0.11700
H1783       H  0.49675815  0.61250158  0.46647105     0.08000
H1784       H  0.94533577  0.69067260  0.50432595     0.05500
H1785       H  0.54811695  0.74120070  0.42616932     0.05400
C1786       C  0.97190261  0.81530373  0.48912591     0.02400
C1787       C  0.97181660  0.77546850  0.48946785    -0.13700
C1788       C  0.99656760  0.76648886  0.46490643    -0.00100
C1789       C  0.52116300  0.79959789  0.43997005    -0.12300
C1790       C  0.52089432  0.83915239  0.43956396     0.02400
C1791       C  0.99647682  0.84665251  0.46417607    -0.11700
H1792       H  0.95328435  0.75285885  0.50985711     0.08000
H1793       H  0.53979818  0.79519047  0.41988225     0.05500
H1794       H  0.99659941  0.87738795  0.46389391     0.05400
C1795       C  0.84555486  0.82108463  0.48909649     0.02400
C1796       C  0.80636922  0.78075207  0.48788642    -0.13700
C1797       C  0.77121432  0.77414971  0.46582494    -0.00100
C1798       C  0.77805160  0.80987395  0.44429668    -0.12300
C1799       C  0.81823166  0.84934952  0.44397754     0.02400
C1800       C  0.85124617  0.85464587  0.46674641    -0.11700
H1801       H  0.80403171  0.75543483  0.50484147     0.08000
H1802       H  0.75316370  0.80768004  0.42691347     0.05500
H1803       H  0.88193018  0.88532144  0.46697822     0.05400
C1804       C  0.67951303  0.65698986  0.48911448     0.02400
C1805       C  0.64845394  0.64992419  0.46380734    -0.13700
C1806       C  0.65596816  0.68190871  0.43920076     0.04700
C1807       C  0.69541268  0.72193914  0.43987080    -0.12300
C1808       C  0.72825276  0.73065002  0.46515265     0.02400
C1809       C  0.71915076  0.69694635  0.48976917    -0.11700
H1810       H  0.61784785  0.61913348  0.46337615     0.08000
H1811       H  0.69992820  0.74503184  0.41976234     0.05500
H1812       H  0.74149937  0.70124313  0.51044845     0.05400
C1813       C  0.55658016  0.93143278  0.37318720     0.85800
C1814       C  0.52496759  0.89138744  0.39448904    -0.54500
C1815       C  0.54501211  0.87321186  0.41301917     0.08700
C1816       C  0.59512153  0.89634860  0.40769604     0.19700
C1817       C  0.59026798  0.96258983  0.39948243    -0.55200
C1818       C  0.61106048  0.94464450  0.41750659     0.08800
C1819       C  0.58192161  0.91648470  0.35101443    -0.54700
C1820       C  0.60108047  0.89723707  0.36802506     0.09400
H1821       H  0.99012672  0.87952543  0.39606776     0.13900
H1822       H  0.61129653  0.88124748  0.42229750    -0.00400
H1823       H  0.59802191  0.49623882  0.40267516     0.14200
H1824       H  0.58592866  0.92234308  0.32375595     0.14000
C1825       C  0.56310759  0.62514393  0.37321188     0.85800
C1826       C  0.60349024  0.63380123  0.39415598    -0.54500
C1827       C  0.62181120  0.67202032  0.41268546     0.08700
C1828       C  0.59848601  0.69887402  0.40767459     0.19700
C1829       C  0.53222506  0.62764825  0.39986371    -0.55200
C1830       C  0.55029767  0.66656424  0.41775664     0.08800
C1831       C  0.57764435  0.66545665  0.35108579    -0.54700
C1832       C  0.59690103  0.70386035  0.36809468     0.09400
H1833       H  0.61543317  0.61089629  0.39555871     0.13900
H1834       H  0.61375310  0.73020625  0.42218642    -0.00400
H1835       H  0.99856343  0.60176109  0.40316472     0.14200
H1836       H  0.57152625  0.66364942  0.32387169     0.14000
C1837       C  0.86895419  0.93822203  0.37337203     0.85800
C1838       C  0.86064248  0.97033739  0.39404978    -0.54500
C1839       C  0.82251190  0.95078913  0.41273367     0.08700
C1840       C  0.79539179  0.90050377  0.40814563     0.19700
C1841       C  0.86642299  0.90510102  0.40029650    -0.55200
C1842       C  0.82763747  0.88458799  0.41837654     0.08800
C1843       C  0.82847000  0.91229811  0.35145688    -0.54700
C1844       C  0.79013053  0.89348658  0.36858449     0.09400
H1845       H  0.88371196  0.50519236  0.39515811     0.13900
H1846       H  0.76414541  0.88467713  0.42280505    -0.00400
H1847       H  0.89219110  0.89719650  0.40362521     0.14200
H1848       H  0.83008806  0.90757471  0.32429262     0.14000
Fe1849     Fe  0.96582141  0.53127306  0.29955779     1.65800
Fe1850     Fe  0.96281760  0.93409702  0.30004935     1.73200
Fe1851     Fe  0.56006909  0.52853304  0.29973124     1.54400
O1852       O  0.56640043  0.57704766  0.26675668    -0.82400
O1853       O  0.99596524  0.93077289  0.34363350    -0.80700
O1854       O  0.00006215  0.56684054  0.25592437    -0.84900
O1855       O  0.50958022  0.57852610  0.33276396    -0.79700
O1856       O  0.56142006  0.99425898  0.25620849    -0.81500
O1857       O  0.91547249  0.93070950  0.33315248    -0.84300
C1858       C  0.54359927  0.58594508  0.34938632     0.96500
C1859       C  0.54088939  0.58589661  0.25014616     1.03900
O1860       O  0.99621976  0.99794650  0.29980080    -1.13200
O1861       O  0.92697717  0.93222361  0.25645924    -0.75700
O1862       O  0.91755505  0.98899268  0.26653961    -0.79200
O1863       O  0.56381606  0.56532041  0.34329781    -0.79900
C1864       C  0.90835143  0.95431368  0.25031865     0.95400
O1865       O  0.92886676  0.99831275  0.34310290    -0.77800
O1866       O  0.50520495  0.92788232  0.26716988    -0.83000
C1867       C  0.53686990  0.95087579  0.34948994     0.98000
C1868       C  0.53961196  0.95340045  0.25054105     1.03900
O1869       O  0.56349777  0.98476272  0.33277548    -0.78600
C1870       C  0.90811076  0.95751415  0.34946403     1.02200
C1871       C  0.89583282  0.79243061  0.70685379     0.85800
C1872       C  0.93588918  0.80073224  0.72812534    -0.54500
C1873       C  0.95437677  0.83896257  0.74667213     0.08700
C1874       C  0.93142813  0.86614575  0.74137978     0.19700
C1875       C  0.86483968  0.79517954  0.73327386    -0.55200
C1876       C  0.88306187  0.83400072  0.75130199     0.08800
C1877       C  0.91099959  0.83281424  0.68472166    -0.54700
C1878       C  0.93035005  0.87123204  0.70169533     0.09400
H1879       H  0.94760488  0.77765063  0.72960150     0.13900
H1880       H  0.94676605  0.89745118  0.75592937    -0.00400
H1881       H  0.83112764  0.76939159  0.73653394     0.14200
H1882       H  0.90551797  0.83105700  0.65743392     0.14000
C1883       C  0.70282030  0.60484663  0.70705652     0.85800
C1884       C  0.69473541  0.63669094  0.72831547    -0.54500
C1885       C  0.65650024  0.61694356  0.74687744     0.08700
C1886       C  0.62905342  0.56679072  0.74150732     0.19700
C1887       C  0.69992427  0.57105008  0.73345783    -0.55200
C1888       C  0.66110112  0.55050052  0.75145112     0.08800
C1889       C  0.66241808  0.57977776  0.68485992    -0.54700
C1890       C  0.62391296  0.56070034  0.70180126     0.09400
H1891       H  0.71799218  0.67146975  0.72987257     0.13900
H1892       H  0.59774959  0.55082461  0.75608166    -0.00400
H1893       H  0.72564169  0.56307000  0.73678460     0.14200
H1894       H  0.66429014  0.57608428  0.65769585     0.14000
C1895       C  0.89060195  0.59875718  0.70696178     0.85800
C1896       C  0.85887440  0.55894401  0.72847792    -0.54500
C1897       C  0.87869615  0.54049680  0.74701122     0.08700
C1898       C  0.92880424  0.56317726  0.74144538     0.19700
C1899       C  0.92471569  0.62982362  0.73316322    -0.55200
C1900       C  0.94528670  0.61158876  0.75119293     0.08800
C1901       C  0.91535494  0.58317092  0.68479752    -0.54700
C1902       C  0.93454281  0.56390163  0.70172624     0.09400
H1903       H  0.82410475  0.54741556  0.73014344     0.13900
H1904       H  0.94482147  0.54787831  0.75600194    -0.00400
H1905       H  0.93278814  0.66355687  0.73639760     0.14200
H1906       H  0.91862874  0.58827705  0.65750106     0.14000
Fe1907     Fe  0.79882390  0.69825605  0.63293003     1.65800
Fe1908     Fe  0.79655037  0.60125201  0.63316684     1.73200
Fe1909     Fe  0.89354792  0.69608265  0.63323497     1.54400
O1910       O  0.89932717  0.74404896  0.59979846    -0.82400
O1911       O  0.83020916  0.59755537  0.67639661    -0.80700
O1912       O  0.83301498  0.73424956  0.58945205    -0.84900
O1913       O  0.84225855  0.74562050  0.66634591    -0.79700
O1914       O  0.89559931  0.66193061  0.58987894    -0.81500
O1915       O  0.74967660  0.59766957  0.66694967    -0.84300
C1916       C  0.87640144  0.75328031  0.68290676     0.96500
C1917       C  0.87375880  0.75300123  0.58335700     1.03900
O1918       O  0.82962884  0.66516778  0.63311209    -1.13200
O1919       O  0.75998101  0.59906637  0.58995672    -0.75700
O1920       O  0.75066092  0.65594122  0.59965019    -0.79200
O1921       O  0.89694935  0.73303848  0.67660741    -0.79900
C1922       C  0.74142440  0.62114383  0.58356441     0.95400
O1923       O  0.76194780  0.66501714  0.67638474    -0.77800
O1924       O  0.83859303  0.59560282  0.59947666    -0.83000
C1925       C  0.87094616  0.61829849  0.68302971     0.98000
C1926       C  0.87340753  0.62130467  0.58337581     1.03900
O1927       O  0.89746735  0.65272816  0.66678465    -0.78600
C1928       C  0.74194630  0.62432040  0.68312953     1.02200
C1929       C  0.80534666  0.98277872  0.82316953     0.02400
C1930       C  0.80593963  0.94331510  0.82416248    -0.13700
C1931       C  0.83088054  0.93433992  0.79983813    -0.00100
C1932       C  0.85532974  0.96729652  0.77471342    -0.12300
C1933       C  0.85443699  0.50651594  0.77367799     0.02400
C1934       C  0.82950688  0.51383366  0.79790946    -0.11700
H1935       H  0.78761945  0.92093348  0.84474590     0.08000
H1936       H  0.87437284  0.96306681  0.75491125     0.05500
H1937       H  0.82907467  0.54428069  0.79722587     0.05400
C1938       C  0.85752928  0.84336949  0.77722398     0.02400
C1939       C  0.85893410  0.88383484  0.77805439    -0.13700
C1940       C  0.83107651  0.89122518  0.80034890    -0.00100
C1941       C  0.80300418  0.85634764  0.82281083    -0.12300
C1942       C  0.80343338  0.81682652  0.82344251     0.02400
C1943       C  0.83009578  0.81049587  0.80023924    -0.11700
H1944       H  0.88135453  0.90848596  0.76040395     0.08000
H1945       H  0.78096844  0.85910765  0.84053753     0.05500
H1946       H  0.82954288  0.77956722  0.80017178     0.05400
C1947       C  0.65175077  0.51555260  0.77729447     0.02400
C1948       C  0.68445838  0.52127654  0.80060975    -0.13700
C1949       C  0.67865519  0.98783903  0.82317827    -0.00100
C1950       C  0.63962414  0.94733065  0.82170683    -0.12300
C1951       C  0.60471756  0.94040525  0.79916059     0.02400
C1952       C  0.61177771  0.97594684  0.77734717    -0.11700
H1953       H  0.71499434  0.55209711  0.80101088     0.08000
H1954       H  0.63719364  0.92221203  0.83893049     0.05500
H1955       H  0.58729207  0.97355477  0.75943894     0.05400
C1956       C  0.51299665  0.82305015  0.82206374     0.02400
C1957       C  0.98147142  0.81652273  0.79734515    -0.13700
C1958       C  0.98873727  0.84874976  0.77305585    -0.00100
C1959       C  0.52831293  0.88868742  0.77368222    -0.12300
C1960       C  0.56168691  0.89688909  0.79837029     0.02400
C1961       C  0.55292451  0.86272550  0.82242212    -0.11700
H1962       H  0.95070579  0.78589292  0.79707766     0.08000
H1963       H  0.53240653  0.91208053  0.75399312     0.05500
H1964       H  0.57573750  0.86642987  0.84251132     0.05400
C1965       C  0.64688861  0.64132143  0.77345700     0.02400
C1966       C  0.67889314  0.66575734  0.79806987    -0.13700
C1967       C  0.67214544  0.69035430  0.82300208    -0.00100
C1968       C  0.63242576  0.69047208  0.82337930    -0.12300
C1969       C  0.59859017  0.66561627  0.79893524     0.02400
C1970       C  0.60708805  0.64108541  0.77395934    -0.11700
H1971       H  0.70950441  0.66562163  0.79781523     0.08000
H1972       H  0.62847394  0.70913699  0.84368685     0.05500
H1973       H  0.58400798  0.62235226  0.75392459     0.05400
C1974       C  0.50754847  0.69129346  0.82333592     0.02400
C1975       C  0.97423442  0.66380212  0.80060224    -0.13700
C1976       C  0.98015382  0.63712695  0.77715451    -0.00100
C1977       C  0.51979302  0.63686013  0.77733938    -0.12300
C1978       C  0.55509939  0.66505391  0.79949366     0.02400
C1979       C  0.54799666  0.69273390  0.82211914    -0.11700
H1980       H  0.94341027  0.66347077  0.80092143     0.08000
H1981       H  0.52233102  0.61498083  0.75933744     0.05500
H1982       H  0.57297769  0.71524653  0.83952669     0.05400
C1983       C  0.76265379  0.72481344  0.89138138     0.85800
C1984       C  0.72509359  0.69398361  0.86757364    -0.54500
C1985       C  0.70678405  0.71428173  0.84933216     0.08700
C1986       C  0.72832759  0.76407782  0.85675357     0.19700
C1987       C  0.79507808  0.76130023  0.86739695    -0.55200
C1988       C  0.77733280  0.78195021  0.84907255     0.08800
C1989       C  0.74297724  0.74568794  0.91363853    -0.54700
C1990       C  0.72625225  0.76722085  0.89648580     0.09400
H1991       H  0.71409856  0.65941232  0.86509712     0.13900
H1992       H  0.71359208  0.78059902  0.84213667    -0.00400
H1993       H  0.82917296  0.77015868  0.86523409     0.14200
H1994       H  0.73990416  0.74115739  0.94105747     0.14000
C1995       C  0.77080960  0.53887001  0.89127851     0.85800
C1996       C  0.80163527  0.53217569  0.86747735    -0.54500
C1997       C  0.78129205  0.99357591  0.84924744     0.08700
C1998       C  0.73143233  0.96536430  0.85653999     0.19700
C1999       C  0.73438777  0.53493006  0.86724723    -0.55200
C2000       C  0.71364604  0.99658294  0.84882706     0.08800
C2001       C  0.74978508  0.99819993  0.91346237    -0.54700
C2002       C  0.72818487  0.95999877  0.89627183     0.09400
H2003       H  0.83625680  0.55571063  0.86505930     0.13900
H2004       H  0.71492542  0.93413875  0.84189918    -0.00400
H2005       H  0.72559980  0.56020645  0.86519610     0.14200
H2006       H  0.75415125  0.99950179  0.94088555     0.14000
C2007       C  0.95668596  0.73299451  0.89084664     0.85800
C2008       C  0.96352052  0.77036862  0.86674347    -0.54500
C2009       C  0.50211733  0.78840026  0.84845804     0.08700
C2010       C  0.53023829  0.76678332  0.85616259     0.19700
C2011       C  0.96052420  0.70027398  0.86711357    -0.55200
C2012       C  0.49889300  0.71770447  0.84875137     0.08800
C2013       C  0.99730732  0.75276180  0.91305752    -0.54700
C2014       C  0.53552583  0.76923145  0.89592379     0.09400
H2015       H  0.94006277  0.78149634  0.86415907     0.13900
H2016       H  0.56149274  0.78131727  0.84154943    -0.00400
H2017       H  0.93515864  0.66619537  0.86519484     0.14200
H2018       H  0.99594324  0.75580073  0.94051018     0.14000
Fe2019     Fe  0.86132774  0.72930253  0.96471261     1.65800
Fe2020     Fe  0.86271170  0.63467121  0.96467179     1.73200
Fe2021     Fe  0.76675939  0.63313649  0.96485895     1.54400
O2022       O  0.76187709  0.67759269  0.99672204    -0.82400
O2023       O  0.83089397  0.59986164  0.92031056    -0.80700
O2024       O  0.82911333  0.73123677  0.00909012    -0.84900
O2025       O  0.81599079  0.73270875  0.93270041    -0.79700
O2026       O  0.76499656  0.59921282  0.00939468    -0.81500
O2027       O  0.91135920  0.67996696  0.93245445    -0.84300
C2028       C  0.78275002  0.70577737  0.91521916     0.96500
C2029       C  0.78816659  0.71117685  0.01403535     1.03900
O2030       O  0.83028536  0.66573025  0.96469957    -1.13200
O2031       O  0.89683283  0.66681725  0.00897382    -0.75700
O2032       O  0.91056613  0.73412199  0.99674568    -0.79200
O2033       O  0.76370808  0.66483252  0.92039530    -0.79900
C2034       C  0.91764634  0.70768609  0.01407667     0.95400
O2035       O  0.89612640  0.73247111  0.92025087    -0.77800
O2036       O  0.81838542  0.58539361  0.99687695    -0.83000
C2037       C  0.78993963  0.57792548  0.91524634     0.98000
C2038       C  0.78494131  0.57824498  0.01435292     1.03900
O2039       O  0.76313038  0.58418656  0.93290926    -0.78600
C2040       C  0.91771122  0.71317835  0.91489624     1.02200
loop_ 
_geom_bond_atom_site_label_1 
_geom_bond_atom_site_label_2 
_geom_bond_distance 
_geom_bond_site_symmetry_2 
_ccdc_geom_bond_type 
C1            C2   1.530       .  S
C1            C7   1.513       .  S
C1            C5   1.532       .  S
C1           C56   1.508       .  S
C2            H9   1.086       .  S
C2            C3   1.370       .  D
C3            C4   1.550       .  S
C3           C63   1.482       .  S
C4            C8   1.539       .  S
C4            C6   1.553       .  S
C4           H10   1.111       .  S
C5           H11   1.086       .  S
C5            C6   1.376       .  D
C6           C88   1.486       .  S
C7           H12   1.065   1_554  S
C7            C8   1.347       .  D
C8          C499   1.467       .  S
C13          C14   1.530       .  S
C13          C17   1.533       .  S
C13        C1039   1.510   1_455  S
C13          C47   1.508       .  S
C14          H21   1.086       .  S
C14        C1035   1.371   1_455  D
C15          C16   1.550       .  S
C15        C1034   1.371       .  D
C15          C77   1.483       .  S
C16          C20   1.539       .  S
C16          C18   1.553       .  S
C16          H22   1.110       .  S
C17          H23   1.086       .  S
C17        C1038   1.377   1_455  D
C18        C1037   1.377       .  D
C18         C157   1.488       .  S
C19        C1033   1.510       .  S
C19          H24   1.066   1_554  S
C19          C20   1.345       .  D
C20         C504   1.463       .  S
C25          C26   1.531       .  S
C25          C31   1.512       .  S
C25          C29   1.531       .  S
C25          C52   1.509       .  S
C26          H33   1.086       .  S
C26         C537   1.370       .  D
C27          C28   1.549       .  S
C27         C536   1.370   1_545  D
C27         C162   1.482       .  S
C28          C32   1.540       .  S
C28          C30   1.553       .  S
C28          H34   1.111       .  S
C29          H35   1.086       .  S
C29         C540   1.375       .  D
C30         C539   1.375   1_545  D
C30          C68   1.485       .  S
C31          H36   1.065   1_554  S
C31         C542   1.346       .  D
C32         C541   1.346   1_545  D
C32         C508   1.468       .  S
Fe37         O53   2.080       .  S
Fe37         O43   2.051       .  S
Fe37         O50   2.057   1_556  S
Fe37         O42   2.084   1_556  S
Fe37         O48   1.960       .  S
Fe38         O41   2.081       .  S
Fe38         O45   2.051       .  S
Fe38         O49   2.084   1_556  S
Fe38         O54   2.055   1_556  S
Fe38         O48   1.958       .  S
Fe39         O57   2.050       .  S
Fe39         O44   2.083   1_556  S
Fe39         O51   2.081       .  S
Fe39         O40   2.054   1_556  S
Fe39         O48   1.961       .  S
O40          C47   1.267       .  A
O41          C55   1.270       .  A
O42          C47   1.273       .  A
O43          C46   1.265       .  A
O44          C56   1.273       .  A
O45          C58   1.265       .  A
C46         C484   1.464       .  S
C46          O51   1.270       .  A
O49          C52   1.272       .  A
O50          C52   1.267       .  A
O53          C58   1.270       .  A
O54          C56   1.267       .  A
C55         C460   1.464       .  S
C55          O57   1.265       .  A
C58         C472   1.464       .  S
C59         C109   1.484       .  S
C59          C60   1.405       .  A
C59          C64   1.394       .  A
C60          C61   1.425       .  A
C60          H65   1.077       .  S
C61          C62   1.425       .  A
C61          C72   1.526       .  S
C62          C63   1.403       .  A
C62          H66   1.076       .  S
C63          C64   1.395       .  A
C64          H67   1.085       .  S
C68          C73   1.405       .  A
C68         C579   1.395   1_545  A
C69          C70   1.396       .  A
C69         C578   1.395       .  A
C69          H74   1.084       .  S
C70         C124   1.486       .  S
C70         C581   1.405       .  A
C71          C72   1.424       .  A
C71         C580   1.405   1_545  A
C71          H75   1.076       .  S
C72          C73   1.424       .  A
C73          H76   1.076       .  S
C77          C82   1.405       .  A
C77        C1098   1.393       .  A
C78          C79   1.392       .  A
C78        C1097   1.393   1_455  A
C78          H83   1.085       .  S
C79         C121   1.484       .  S
C79        C1100   1.406   1_455  A
C80          C81   1.427       .  A
C80        C1099   1.406       .  A
C80          H84   1.076       .  S
C81          C82   1.427       .  A
C81          C90   1.530       .  S
C82          H85   1.076       .  S
C86         C100   1.486       .  S
C86          C87   1.395       .  A
C86          C91   1.407       .  A
C87          C88   1.394       .  A
C87          H92   1.084       .  S
C88          C89   1.407       .  A
C89          C90   1.426       .  A
C89          H93   1.076       .  S
C90          C91   1.425       .  A
C91          H94   1.076       .  S
C95          C96   1.530       .  S
C95         C101   1.510       .  S
C95          C99   1.533       .  S
C95         C140   1.508       .  S
C96         H103   1.086       .  S
C96          C97   1.375       .  D
C97          C98   1.558       .  S
C97         C164   1.486       .  S
C98         C102   1.538       .  S
C98         C100   1.547       .  S
C98         H104   1.110       .  S
C99         H105   1.086       .  S
C99         C100   1.373       .  D
C101        H106   1.065       .  S
C101        C102   1.347       .  D
C102        C334   1.464       .  S
C107        C108   1.531       .  S
C107        C113   1.510       .  S
C107        C111   1.533       .  S
C107        C152   1.511       .  S
C108        H115   1.086       .  S
C108        C109   1.375       .  D
C109        C110   1.556       .  S
C110        C114   1.538       .  S
C110        C112   1.546       .  S
C110        H116   1.111       .  S
C111        H117   1.086       .  S
C111        C112   1.373       .  D
C112        C153   1.485       .  S
C113        H118   1.064       .  S
C113        C114   1.347       .  D
C114        C329   1.466       .  S
C119        C120   1.530       .  S
C119        C125   1.510       .  S
C119        C123   1.533       .  S
C119        C149   1.509       .  S
C120        H127   1.086       .  S
C120        C121   1.376       .  D
C121        C122   1.556       .  S
C122        C126   1.539       .  S
C122        C124   1.547       .  S
C122        H128   1.110       .  S
C123        H129   1.086       .  S
C123        C124   1.372       .  D
C125        H130   1.065       .  S
C125        C126   1.347       .  D
C126        C338   1.467       .  S
Fe131       O147   2.080       .  S
Fe131       O137   2.069       .  S
Fe131       O144   2.066       .  S
Fe131       O136   2.076       .  S
Fe131       O142   1.947       .  S
Fe132       O135   2.078       .  S
Fe132       O139   2.073       .  S
Fe132       O143   2.074       .  S
Fe132       O148   2.074       .  S
Fe132       O142   1.946       .  S
Fe133       O151   2.071       .  S
Fe133       O138   2.072       .  S
Fe133       O145   2.077       .  S
Fe133       O134   2.067       .  S
Fe133       O142   1.946       .  S
O134        C141   1.270       .  A
O135        C149   1.269       .  A
O136        C141   1.268       .  A
O137        C140   1.272       .  A
O138        C150   1.267       .  A
O139        C152   1.273       .  A
C140        O145   1.270       .  A
C141        C314   1.466       .  S
O143        C146   1.268       .  A
O144        C146   1.270       .  A
C146        C302   1.465       .  S
O147        C152   1.270       .  A
O148        C150   1.272       .  A
C149        O151   1.272       .  A
C150        C290   1.468       .  S
C153        C158   1.395       .  A
C153       C1174   1.407   1_455  A
C154        C155   1.424       .  A
C154       C1173   1.407       .  A
C154        H159   1.077       .  S
C155        C156   1.426       .  A
C155        C166   1.528       .  S
C156        C157   1.407       .  A
C156        H160   1.076       .  S
C157       C1178   1.394       .  A
C158       C1177   1.394   1_455  A
C158        H161   1.084       .  S
C162        C167   1.403       .  A
C162        C673   1.394   1_545  A
C163        C164   1.394       .  A
C163        C672   1.394       .  A
C163        H168   1.085       .  S
C164        C675   1.407       .  A
C165        C166   1.428       .  A
C165        C674   1.407   1_545  A
C165        H169   1.077       .  S
C166        C167   1.425       .  A
C167        H170   1.076       .  S
C171        C172   1.532       .  S
C171        C177   1.509       .  S
C171        C175   1.532       .  S
C171        C228   1.513       .  S
C172       H1199   1.086       .  S
C172        C173   1.376       .  D
C173        C174   1.557       .  S
C173        C256   1.487       .  S
C174        C178   1.539       .  S
C174        C176   1.549       .  S
C174        H180   1.110       .  S
C175        H181   1.086       .  S
C175        C176   1.373       .  D
C176        C265   1.487       .  S
C177        H182   1.064       .  S
C177        C178   1.347       .  D
C178        C387   1.467       .  S
H179       C1192   1.086   1_455  S
C183        C184   1.532       .  S
C183        C189   1.509       .  S
C183        C187   1.532       .  S
C183        C225   1.513       .  S
C184        H701   1.086   1_545  S
C184        C185   1.376       .  D
C185        C186   1.554       .  S
C185        C242   1.484       .  S
C186        C190   1.539       .  S
C186        C188   1.548       .  S
C186        H192   1.111       .  S
C187        H193   1.086       .  S
C187        C188   1.373       .  D
C188        C249   1.486       .  S
C189        H194   1.062       .  S
C189        C190   1.347       .  D
C190        C396   1.467       .  S
H191        C694   1.086       .  S
C195        C196   1.531       .  S
C195        C201   1.510       .  S
C195        C199   1.532       .  S
C195        C216   1.511       .  S
C196        H203   1.086       .  S
C196        C197   1.376       .  D
C197        C198   1.555       .  S
C197        C274   1.485       .  S
C198        C202   1.539       .  S
C198        C200   1.549       .  S
C198        H204   1.110       .  S
C199        H715   1.086   1_545  S
C199        C200   1.373       .  D
C200        C229   1.487       .  S
C201        H206   1.059       .  S
C201        C202   1.348       .  D
C202        C392   1.468       .  S
H205        C709   1.086       .  S
Fe207       O212   2.079       .  S
Fe207      O1243   2.081   1_455  S
Fe207       O723   2.074       .  S
Fe207      O1240   2.072   1_455  S
Fe207      O1238   1.945   1_455  S
Fe208       O211   2.081       .  S
Fe208       O215   2.076       .  S
Fe208       O219   2.075       .  S
Fe208       O734   2.073       .  S
Fe208       O218   1.945       .  S
Fe209       O221   2.079       .  S
Fe209       O210   2.075       .  S
Fe209      O1247   2.076   1_455  S
Fe209      O1234   2.076   1_455  S
Fe209      O1748   1.945   1_445  S
O210        C217   1.272       .  A
O211        C735   1.270       .  A
O212        C727   1.269       .  A
O213       Fe717   2.074   1_545  S
O213        C216   1.273       .  A
O214      Fe1229   2.076       .  S
O214        C226   1.268       .  A
O215        C228   1.274       .  A
C216        O221   1.270       .  A
C217        C360   1.472       .  S
C217        O722   1.269       .  A
O218      Fe1227   1.945       .  S
O218      Fe1739   1.945       .  S
O219        C222   1.268       .  A
O220      Fe1227   2.072       .  S
O220        C222   1.271       .  A
C222        C348   1.468       .  S
O223      Fe1227   2.081       .  S
O223        C228   1.270       .  A
O224       Fe718   2.073   1_545  S
O224        C226   1.272       .  A
C225        O227   1.273       .  A
C225        O721   1.270   1_545  A
C226        C372   1.469       .  S
O227      Fe1229   2.076       .  S
C229        C230   1.407       .  A
C229        C234   1.396   1_545  A
C230        C231   1.424   1_545  A
C230        H235   1.077       .  S
C231        C742   1.424       .  A
C231        C750   1.527       .  S
C232        C233   1.405       .  A
C232        C741   1.424       .  A
C232        H236   1.076       .  S
C233        C288   1.487       .  S
C233        C744   1.396       .  A
C234        C743   1.396       .  A
C234        H237   1.084       .  S
C238        C309   1.484       .  S
C238        C239   1.404       .  A
C238        C243   1.394       .  A
C239        C240   1.425       .  A
C239        H244   1.077       .  S
C240        C751   1.426       .  A
C240        C741   1.527       .  S
C241        C242   1.406       .  A
C241        C750   1.426   1_545  A
C241        H245   1.077       .  S
C242        C753   1.394   1_545  A
C243        C752   1.394       .  A
C243        H246   1.085       .  S
C247        C300   1.489       .  S
C247        C248   1.395   1_455  A
C247        C252   1.409       .  A
C248       C1269   1.396       .  A
C248        H253   1.084       .  S
C249        C250   1.405       .  A
C249       C1268   1.396       .  A
C250        C251   1.423       .  A
C250        H254   1.076       .  S
C251       C1272   1.427       .  A
C251        C258   1.528       .  S
C252       C1271   1.427   1_455  A
C252        H255   1.077       .  S
C256        C257   1.407       .  A
C256        C261   1.393       .  A
C257        C258   1.428       .  A
C257        H262   1.077       .  S
C258       C1279   1.424       .  A
C259        C260   1.404       .  A
C259       C1278   1.424   1_455  A
C259        H263   1.077       .  S
C260        C285   1.481       .  S
C260       C1281   1.394   1_455  A
C261       C1280   1.394       .  A
C261        H264   1.085       .  S
C265        C266   1.406       .  A
C265        C270   1.396       .  A
C266        C267   1.424       .  A
C266        H271   1.077       .  S
C267        C268   1.426       .  A
C267        C278   1.528       .  S
C268        C269   1.408       .  A
C268        H272   1.077       .  S
C269        C312   1.489       .  S
C269        C270   1.395       .  A
C270        H273   1.084       .  S
C274        C275   1.393       .  A
C274        C279   1.407       .  A
C275        C276   1.394       .  A
C275        H280   1.085       .  S
C276        C297   1.483       .  S
C276        C277   1.405       .  A
C277        C278   1.425       .  A
C277        H281   1.077       .  S
C278        C279   1.427       .  A
C279        H282   1.077       .  S
C283        C284   1.530       .  S
C283        C289   1.512       .  S
C283        C287   1.531       .  S
C283        C337   1.506       .  S
C284       H1311   1.086   1_455  S
C284        C285   1.371       .  D
C285        C286   1.549       .  S
C286        C290   1.540       .  S
C286        C288   1.554       .  S
C286        H292   1.110       .  S
C287        H803   1.086       .  S
C287        C288   1.375       .  D
C289        H294   1.065       .  S
C289        C290   1.346       .  D
H291       C1304   1.086       .  S
H293        C797   1.086       .  S
C295        C296   1.531       .  S
C295        C301   1.512       .  S
C295        C299   1.533       .  S
C295        C328   1.511       .  S
C296        H303   1.086       .  S
C296        C297   1.371       .  D
C297        C298   1.550       .  S
C298        C302   1.538       .  S
C298        C300   1.552       .  S
C298        H304   1.110       .  S
C299       H1325   1.086   1_455  S
C299        C300   1.377       .  D
C301        H306   1.065       .  S
C301        C302   1.346       .  D
H305       C1319   1.086       .  S
C307        C308   1.532       .  S
C307        C313   1.512       .  S
C307        C311   1.532       .  S
C307        C340   1.511       .  S
C308        H825   1.086       .  S
C308        C309   1.371       .  D
C309        C310   1.551       .  S
C310        C314   1.539       .  S
C310        C312   1.554       .  S
C310        H316   1.111       .  S
C311        H317   1.086       .  S
C311        C312   1.377       .  D
C313        H318   1.065       .  S
C313        C314   1.346       .  D
H315        C818   1.086   1_545  S
Fe319       O324   2.084       .  S
Fe319       O845   2.085   1_545  S
Fe319      O1345   2.057       .  S
Fe319       O842   2.052   1_545  S
Fe319       O840   1.953   1_545  S
Fe320       O323   2.082       .  S
Fe320       O327   2.060       .  S
Fe320       O331   2.083       .  S
Fe320      O1356   2.057       .  S
Fe320       O330   1.955       .  S
Fe321       O333   2.087       .  S
Fe321       O322   2.053       .  S
Fe321       O849   2.053   1_545  S
Fe321       O836   2.083   1_545  S
Fe321      O1860   1.955   1_445  S
O322        C329   1.266       .  A
O323       C1357   1.272       .  A
O324       C1349   1.270       .  A
O325      Fe1339   2.057   1_455  S
O325        C328   1.268       .  A
O326       Fe831   2.083       .  S
O326        C338   1.271       .  A
O327        C340   1.269       .  A
C328        O333   1.273       .  A
C329       O1344   1.270       .  A
O330       Fe829   1.953       .  S
O330      Fe1851   1.955       .  S
O331        C334   1.271       .  A
O332       Fe829   2.052       .  S
O332        C334   1.266       .  A
O335       Fe829   2.085       .  S
O335        C340   1.273       .  A
O336      Fe1340   2.057   1_455  S
O336        C338   1.267       .  A
C337        O339   1.267       .  A
C337       O1343   1.272   1_455  A
O339       Fe831   2.053       .  S
C341        C342   1.531       .  S
C341        C347   1.511       .  S
C341        C345   1.534       .  S
C341        C386   1.513       .  S
C342        H349   1.086       .  S
C342        C343   1.372       .  D
C343        C344   1.551       .  S
C343        C428   1.485       .  S
C344        C348   1.540       .  S
C344        C346   1.554       .  S
C344        H350   1.110       .  S
C345        H351   1.086       .  S
C345        C346   1.377       .  D
C346        C408   1.491       .  S
C347        H352   1.064       .  S
C347        C348   1.346       .  D
C353        C354   1.531       .  S
C353        C359   1.513       .  S
C353        C357   1.532       .  S
C353        C398   1.511       .  S
C354        H361   1.086       .  S
C354        C355   1.371       .  D
C355        C356   1.552       .  S
C355        C435   1.484       .  S
C356        C360   1.541       .  S
C356        C358   1.554       .  S
C356        H362   1.110       .  S
C357        H363   1.086       .  S
C357        C358   1.376       .  D
C358        C417   1.488       .  S
C359        H364   1.060       .  S
C359        C360   1.347       .  D
C365        C366   1.531       .  S
C365        C371   1.511       .  S
C365        C369   1.534       .  S
C365        C395   1.513       .  S
C366        H373   1.086       .  S
C366        C367   1.372       .  D
C367        C368   1.551       .  S
C367        C403   1.483       .  S
C368        C372   1.541       .  S
C368        C370   1.554       .  S
C368        H374   1.111       .  S
C369        H375   1.086       .  S
C369        C370   1.377       .  D
C370        C446   1.490       .  S
C371        H376   1.062       .  S
C371        C372   1.346       .  D
Fe377       O393   2.084       .  S
Fe377       O383   2.060       .  S
Fe377       O390   2.056       .  S
Fe377       O382   2.083       .  S
Fe377       O388   1.958       .  S
Fe378       O381   2.087       .  S
Fe378       O385   2.061       .  S
Fe378       O389   2.084       .  S
Fe378       O394   2.057       .  S
Fe378       O388   1.957       .  S
Fe379       O397   2.061       .  S
Fe379       O384   2.083       .  S
Fe379       O391   2.087       .  S
Fe379       O380   2.055       .  S
Fe379       O388   1.957       .  S
O380        C387   1.266       .  A
O381        C395   1.273       .  A
O382        C387   1.270       .  A
O383        C386   1.268       .  A
O384        C396   1.271       .  A
O385        C398   1.269       .  A
C386        O391   1.273       .  A
O389        C392   1.270       .  A
O390        C392   1.266       .  A
O393        C398   1.273       .  A
O394        C396   1.267       .  A
C395        O397   1.268       .  A
C399        C467   1.485       .  S
C399        C400   1.407       .  A
C399        C914   1.393       .  A
C400        C401   1.427       .  A
C400        H405   1.077       .  S
C401        C402   1.425       .  A
C401        C410   1.528       .  S
C402        C913   1.404       .  A
C402        H406   1.076       .  S
C403        C404   1.394       .  A
C403        C912   1.404   1_545  A
C404        C909   1.393   1_545  A
C404        H407   1.085       .  S
C408        C409   1.407       .  A
C408        C413   1.395       .  A
C409        C410   1.426       .  A
C409        H414   1.076       .  S
C410        C411   1.424       .  A
C411        C412   1.406       .  A
C411        H415   1.077       .  S
C412        C458   1.485       .  S
C412        C413   1.396       .  A
C413        H416   1.084       .  S
C417        C418   1.396       .  A
C417        C932   1.406   1_545  A
C418        C929   1.397   1_545  A
C418        H423   1.084       .  S
C419        C470   1.489       .  S
C419        C420   1.407       .  A
C419        C928   1.397       .  A
C420        C421   1.426       .  A
C420        H424   1.076       .  S
C421        C422   1.425       .  A
C421        C430   1.530       .  S
C422        C927   1.406       .  A
C422        H425   1.076       .  S
C426        C479   1.486       .  S
C426        C431   1.407       .  A
C426       C1447   1.394   1_455  A
C427        C428   1.394       .  A
C427       C1446   1.394       .  A
C427        H432   1.085       .  S
C428       C1449   1.405       .  A
C429        C430   1.427       .  A
C429       C1448   1.405   1_455  A
C429        H433   1.076       .  S
C430        C431   1.427       .  A
C431        H434   1.077       .  S
C435        C436   1.395       .  A
C435        C440   1.403       .  A
C436        C437   1.394       .  A
C436        H441   1.085       .  S
C437        C455   1.485       .  S
C437        C438   1.407       .  A
C438        C439   1.427       .  A
C438        H442   1.077       .  S
C439        C440   1.425       .  A
C439        C448   1.528       .  S
C440        H443   1.076       .  S
C444        C482   1.487   1_455  S
C444        C449   1.406       .  A
C444       C1465   1.397   1_455  A
C445        C446   1.396       .  A
C445       C1464   1.397       .  A
C445        H450   1.084       .  S
C446       C1467   1.406       .  A
C447        C448   1.426       .  A
C447       C1466   1.406   1_455  A
C447        H451   1.076       .  S
C448        C449   1.424       .  A
C449        H452   1.077       .  S
C453        C454   1.531       .  S
C453        C459   1.510       .  S
C453        C457   1.533       .  S
C453        C498   1.509       .  S
C454        H461   1.086       .  S
C454        C455   1.375       .  D
C455        C456   1.556       .  S
C456        C460   1.538       .  S
C456        C458   1.547       .  S
C456        H462   1.111       .  S
C457        H463   1.086       .  S
C457        C458   1.372       .  D
C459        H464   1.065       .  S
C459        C460   1.347       .  D
C465        C466   1.531       .  S
C465        C469   1.534       .  S
C465        C981   1.509   1_545  S
C465        C507   1.511       .  S
C466        H473   1.086       .  S
C466        C977   1.375   1_545  D
C467        C468   1.556       .  S
C467        C976   1.375       .  D
C468        C472   1.538       .  S
C468        C470   1.548       .  S
C468        H474   1.110       .  S
C469        H475   1.086       .  S
C469        C980   1.373   1_545  D
C470        C979   1.373       .  D
C471        C975   1.509       .  S
C471        H476   1.064       .  S
C471        C472   1.347       .  D
C477        C478   1.531       .  S
C477        C483   1.509       .  S
C477        C481   1.534       .  S
C477        C510   1.510       .  S
C478        H485   1.086       .  S
C478       C1499   1.376       .  D
C479        C480   1.556       .  S
C479       C1498   1.376   1_455  D
C480        C484   1.539       .  S
C480        C482   1.548   1_455  S
C480        H486   1.111       .  S
C481        H487   1.086       .  S
C481       C1502   1.372       .  D
C482       C1501   1.372       .  D
C483        H488   1.066       .  S
C483       C1504   1.346       .  D
C484       C1503   1.346   1_455  D
Fe489       O505   2.078       .  S
Fe489       O495   2.072       .  S
Fe489       O502   2.069       .  S
Fe489       O494   2.074   1_556  S
Fe489       O500   1.946       .  S
Fe490       O493   2.076       .  S
Fe490       O497   2.074       .  S
Fe490       O501   2.070   1_556  S
Fe490       O506   2.072       .  S
Fe490       O500   1.945       .  S
Fe491       O509   2.075       .  S
Fe491       O496   2.074   1_556  S
Fe491       O503   2.077       .  S
Fe491       O492   2.069       .  S
Fe491       O500   1.945       .  S
O492        C499   1.270   1_556  A
O493        C507   1.270       .  A
O494        C499   1.268       .  A
O495        C498   1.273       .  A
O496        C508   1.268       .  A
O497        C510   1.273       .  A
C498        O503   1.270       .  A
O501        C504   1.267       .  A
O502        C504   1.271   1_556  A
O505        C510   1.270       .  A
O506        C508   1.271   1_556  A
C507        O509   1.273       .  A
C511        C512   1.530       .  S
C511        C517   1.513       .  S
C511        C515   1.532       .  S
C511        C566   1.508       .  S
C512        H519   1.086       .  S
C512        C513   1.370       .  D
C513        C514   1.550       .  S
C513        C573   1.482       .  S
C514        C518   1.539       .  S
C514        C516   1.553       .  S
C514        H520   1.111       .  S
C515        H521   1.086       .  S
C515        C516   1.376       .  D
C516        C598   1.486       .  S
C517        H522   1.065   1_554  S
C517        C518   1.347       .  D
C518       C1009   1.467       .  S
C523        C524   1.530       .  S
C523       C1549   1.510   1_455  S
C523        C527   1.533       .  S
C523        C557   1.508       .  S
C524        H531   1.086       .  S
C524       C1545   1.371   1_455  D
C525        C526   1.550       .  S
C525       C1544   1.371       .  D
C525        C587   1.483       .  S
C526        C530   1.539       .  S
C526        C528   1.553       .  S
C526        H532   1.110       .  S
C527        H533   1.086       .  S
C527       C1548   1.377   1_455  D
C528       C1547   1.377       .  D
C528        C667   1.488       .  S
C529       C1543   1.510       .  S
C529        H534   1.066   1_554  S
C529        C530   1.345       .  D
C530       C1014   1.463       .  S
C535        C536   1.531       .  S
C535        C541   1.512       .  S
C535        C539   1.531       .  S
C535        C562   1.509       .  S
C536        H543   1.086       .  S
C537        C538   1.549       .  S
C537        C672   1.482       .  S
C538        C542   1.540       .  S
C538        C540   1.553       .  S
C538        H544   1.111       .  S
C539        H545   1.086       .  S
C540        C578   1.485       .  S
C541        H546   1.065   1_554  S
C542       C1018   1.468       .  S
Fe547       O563   2.080       .  S
Fe547       O553   2.051       .  S
Fe547       O560   2.057   1_556  S
Fe547       O552   2.084   1_556  S
Fe547       O558   1.960       .  S
Fe548       O551   2.081       .  S
Fe548       O555   2.051       .  S
Fe548       O559   2.084   1_556  S
Fe548       O564   2.055   1_556  S
Fe548       O558   1.958       .  S
Fe549       O567   2.050       .  S
Fe549       O554   2.083   1_556  S
Fe549       O561   2.081       .  S
Fe549       O550   2.054   1_556  S
Fe549       O558   1.961       .  S
O550        C557   1.267       .  A
O551        C565   1.270       .  A
O552        C557   1.273       .  A
O553        C556   1.265       .  A
O554        C566   1.273       .  A
O555        C568   1.265       .  A
C556        C994   1.464       .  S
C556        O561   1.270       .  A
O559        C562   1.272       .  A
O560        C562   1.267       .  A
O563        C568   1.270       .  A
O564        C566   1.267       .  A
C565        C970   1.464       .  S
C565        O567   1.265       .  A
C568        C982   1.464       .  S
C569        C619   1.484       .  S
C569        C570   1.405       .  A
C569        C574   1.394       .  A
C570        C571   1.425       .  A
C570        H575   1.077       .  S
C571        C572   1.425       .  A
C571        C582   1.526       .  S
C572        C573   1.403       .  A
C572        H576   1.076       .  S
C573        C574   1.395       .  A
C574        H577   1.085       .  S
C578        C583   1.405       .  A
C579        C580   1.396       .  A
C579        H584   1.084       .  S
C580        C634   1.486       .  S
C581        C582   1.424       .  A
C581        H585   1.076       .  S
C582        C583   1.424       .  A
C583        H586   1.076       .  S
C587       C1608   1.393       .  A
C587        C592   1.405       .  A
C588       C1607   1.393   1_455  A
C588        C589   1.392       .  A
C588        H593   1.085       .  S
C589        C631   1.484       .  S
C589       C1610   1.406   1_455  A
C590       C1609   1.406       .  A
C590        C591   1.427       .  A
C590        H594   1.076       .  S
C591        C592   1.426       .  A
C591        C600   1.530       .  S
C592        H595   1.076       .  S
C596        C610   1.486       .  S
C596        C597   1.395       .  A
C596        C601   1.407       .  A
C597        C598   1.394       .  A
C597        H602   1.084       .  S
C598        C599   1.407       .  A
C599        C600   1.426       .  A
C599        H603   1.076       .  S
C600        C601   1.425       .  A
C601        H604   1.076       .  S
C605        C606   1.530       .  S
C605        C611   1.510       .  S
C605        C609   1.533       .  S
C605        C650   1.508       .  S
C606        H613   1.086       .  S
C606        C607   1.375       .  D
C607        C608   1.558       .  S
C607        C674   1.486       .  S
C608        C612   1.538       .  S
C608        C610   1.547       .  S
C608        H614   1.110       .  S
C609        H615   1.086       .  S
C609        C610   1.373       .  D
C611        H616   1.065       .  S
C611        C612   1.347       .  D
C612        C844   1.464       .  S
C617        C618   1.531       .  S
C617        C623   1.510       .  S
C617        C621   1.533       .  S
C617        C662   1.511       .  S
C618        H625   1.086       .  S
C618        C619   1.375       .  D
C619        C620   1.556       .  S
C620        C624   1.538       .  S
C620        C622   1.546       .  S
C620        H626   1.111       .  S
C621        H627   1.086       .  S
C621        C622   1.373       .  D
C622        C663   1.486       .  S
C623        H628   1.064       .  S
C623        C624   1.347       .  D
C624        C839   1.466       .  S
C629        C630   1.530       .  S
C629        C635   1.510       .  S
C629        C633   1.533       .  S
C629        C659   1.509       .  S
C630        H637   1.086       .  S
C630        C631   1.376       .  D
C631        C632   1.556       .  S
C632        C636   1.539       .  S
C632        C634   1.547       .  S
C632        H638   1.110       .  S
C633        H639   1.086       .  S
C633        C634   1.372       .  D
C635        H640   1.065       .  S
C635        C636   1.347       .  D
C636        C848   1.467       .  S
Fe641       O657   2.080       .  S
Fe641       O647   2.069       .  S
Fe641       O654   2.066       .  S
Fe641       O646   2.076       .  S
Fe641       O652   1.947       .  S
Fe642       O645   2.078       .  S
Fe642       O649   2.073       .  S
Fe642       O653   2.074       .  S
Fe642       O658   2.074       .  S
Fe642       O652   1.946       .  S
Fe643       O661   2.071       .  S
Fe643       O648   2.072       .  S
Fe643       O655   2.077       .  S
Fe643       O644   2.067       .  S
Fe643       O652   1.946       .  S
O644        C651   1.270       .  A
O645        C659   1.269       .  A
O646        C651   1.268       .  A
O647        C650   1.272       .  A
O648        C660   1.267       .  A
O649        C662   1.273       .  A
C650        O655   1.270       .  A
C651        C824   1.466       .  S
O653        C656   1.268       .  A
O654        C656   1.270       .  A
C656        C812   1.465       .  S
O657        C662   1.270       .  A
O658        C660   1.272       .  A
C659        O661   1.272       .  A
C660        C800   1.468       .  S
C663       C1684   1.407   1_455  A
C663        C668   1.395       .  A
C664       C1683   1.407       .  A
C664        C665   1.424       .  A
C664        H669   1.077       .  S
C665        C666   1.426       .  A
C665        C676   1.528       .  S
C666        C667   1.407       .  A
C666        H670   1.076       .  S
C667       C1688   1.394       .  A
C668       C1687   1.394   1_455  A
C668        H671   1.084       .  S
C672        C677   1.403       .  A
C673        C674   1.394       .  A
C673        H678   1.085       .  S
C675        C676   1.428       .  A
C675        H679   1.077       .  S
C676        C677   1.425       .  A
C677        H680   1.076       .  S
C681        C682   1.532       .  S
C681        C687   1.510       .  S
C681        C685   1.532       .  S
C681        C738   1.513       .  S
C682       H1709   1.086       .  S
C682        C683   1.376       .  D
C683        C684   1.557       .  S
C683        C766   1.487       .  S
C684        C688   1.539       .  S
C684        C686   1.549       .  S
C684        H690   1.110       .  S
C685        H691   1.086       .  S
C685        C686   1.373       .  D
C686        C775   1.487       .  S
C687        H692   1.064       .  S
C687        C688   1.347       .  D
C688        C897   1.467       .  S
H689       C1702   1.086   1_455  S
C693        C694   1.532       .  S
C693        C699   1.509       .  S
C693        C697   1.532       .  S
C693        C735   1.513       .  S
C694        C695   1.376       .  D
C695        C696   1.554       .  S
C695        C752   1.484       .  S
C696        C700   1.539       .  S
C696        C698   1.548       .  S
C696        H702   1.111       .  S
C697        H703   1.086       .  S
C697        C698   1.373       .  D
C698        C759   1.486       .  S
C699        H704   1.062       .  S
C699        C700   1.347       .  D
C700        C906   1.467       .  S
C705        C706   1.531       .  S
C705        C711   1.510       .  S
C705        C709   1.533       .  S
C705        C726   1.511       .  S
C706        H713   1.086       .  S
C706        C707   1.376       .  D
C707        C708   1.555       .  S
C707        C784   1.485       .  S
C708        C712   1.539       .  S
C708        C710   1.549       .  S
C708        H714   1.110       .  S
C709        C710   1.373       .  D
C710        C739   1.487       .  S
C711        H716   1.059       .  S
C711        C712   1.347       .  D
C712        C902   1.468       .  S
Fe717      O1753   2.081   1_455  S
Fe717      O1750   2.072   1_455  S
Fe717       O722   2.079   1_565  S
Fe717      O1748   1.945   1_455  S
Fe718       O721   2.081       .  S
Fe718       O725   2.076       .  S
Fe718       O729   2.075       .  S
Fe718       O728   1.945       .  S
Fe719      O1757   2.076   1_455  S
Fe719      O1744   2.076   1_455  S
Fe719       O731   2.079       .  S
Fe719       O720   2.075       .  S
Fe719      O1238   1.945   1_455  S
O720        C727   1.272       .  A
O723        C726   1.273       .  A
O724      Fe1739   2.076       .  S
O724        C736   1.268       .  A
O725        C738   1.274       .  A
C726        O731   1.270       .  A
C727        C870   1.472       .  S
O728      Fe1737   1.945       .  S
O728      Fe1229   1.945   1_565  S
O729        C732   1.268       .  A
O730      Fe1737   2.072       .  S
O730        C732   1.271       .  A
C732        C858   1.468       .  S
O733      Fe1737   2.081       .  S
O733        C738   1.270       .  A
O734        C736   1.272       .  A
C735        O737   1.273       .  A
C736        C882   1.469       .  S
O737      Fe1739   2.076       .  S
C739        C740   1.407       .  A
C739        C744   1.396       .  A
C740        C741   1.424       .  A
C740        H745   1.077       .  S
C742        C743   1.405       .  A
C742        H746   1.076       .  S
C743        C798   1.487       .  S
C744        H747   1.084       .  S
C748        C819   1.484       .  S
C748        C749   1.404       .  A
C748        C753   1.394       .  A
C749        C750   1.425       .  A
C749        H754   1.077       .  S
C751        C752   1.406       .  A
C751        H755   1.077       .  S
C753        H756   1.085   1_565  S
C757        C810   1.489       .  S
C757        C758   1.395   1_455  A
C757        C762   1.409       .  A
C758       C1779   1.396       .  A
C758        H763   1.084       .  S
C759       C1778   1.396       .  A
C759        C760   1.405       .  A
C760        C761   1.423       .  A
C760        H764   1.076       .  S
C761       C1782   1.427       .  A
C761        C768   1.528       .  S
C762       C1781   1.427   1_455  A
C762        H765   1.077       .  S
C766        C767   1.407       .  A
C766        C771   1.393       .  A
C767        C768   1.428       .  A
C767        H772   1.077       .  S
C768       C1789   1.424       .  A
C769       C1788   1.424   1_455  A
C769        C770   1.404       .  A
C769        H773   1.077       .  S
C770        C795   1.481       .  S
C770       C1791   1.394   1_455  A
C771       C1790   1.394       .  A
C771        H774   1.085       .  S
C775        C776   1.406       .  A
C775        C780   1.396       .  A
C776        C777   1.424       .  A
C776        H781   1.077       .  S
C777        C778   1.426       .  A
C777        C788   1.528       .  S
C778        C779   1.408       .  A
C778        H782   1.077       .  S
C779        C822   1.489       .  S
C779        C780   1.395       .  A
C780        H783   1.084       .  S
C784        C785   1.393       .  A
C784        C789   1.407       .  A
C785        C786   1.394       .  A
C785        H790   1.085       .  S
C786        C807   1.483       .  S
C786        C787   1.405       .  A
C787        C788   1.425       .  A
C787        H791   1.077       .  S
C788        C789   1.427       .  A
C789        H792   1.077       .  S
C793        C794   1.530       .  S
C793        C799   1.512       .  S
C793        C797   1.531       .  S
C793        C847   1.506       .  S
C794       H1821   1.086   1_455  S
C794        C795   1.371       .  D
C795        C796   1.549       .  S
C796        C800   1.540       .  S
C796        C798   1.554       .  S
C796        H802   1.110       .  S
C797        C798   1.375       .  D
C799        H804   1.065       .  S
C799        C800   1.346       .  D
H801       C1814   1.086       .  S
C805        C806   1.531       .  S
C805        C811   1.512       .  S
C805        C809   1.533       .  S
C805        C838   1.511       .  S
C806        H813   1.086       .  S
C806        C807   1.371       .  D
C807        C808   1.550       .  S
C808        C812   1.538       .  S
C808        C810   1.552       .  S
C808        H814   1.110       .  S
C809       H1835   1.086   1_455  S
C809        C810   1.377       .  D
C811        H816   1.065       .  S
C811        C812   1.346       .  D
H815       C1829   1.086       .  S
C817        C818   1.532       .  S
C817        C823   1.512       .  S
C817        C821   1.532       .  S
C817        C850   1.511       .  S
C818        C819   1.371       .  D
C819        C820   1.551       .  S
C820        C824   1.539       .  S
C820        C822   1.554       .  S
C820        H826   1.111       .  S
C821        H827   1.086       .  S
C821        C822   1.377       .  D
C823        H828   1.065       .  S
C823        C824   1.346       .  D
Fe829      O1855   2.057       .  S
Fe829       O834   2.084       .  S
Fe830       O833   2.082       .  S
Fe830       O837   2.060       .  S
Fe830       O841   2.083       .  S
Fe830      O1866   2.057       .  S
Fe830       O840   1.955       .  S
Fe831       O843   2.087       .  S
Fe831       O832   2.053       .  S
Fe831      O1350   1.955   1_455  S
O832        C839   1.266       .  A
O833       C1867   1.272       .  A
O834       C1859   1.270       .  A
O835      Fe1849   2.057   1_455  S
O835        C838   1.268       .  A
O836        C848   1.271       .  A
O837        C850   1.269       .  A
C838        O843   1.273       .  A
C839       O1854   1.270       .  A
O840      Fe1341   1.955   1_565  S
O841        C844   1.271       .  A
O842        C844   1.266       .  A
O845        C850   1.273       .  A
O846      Fe1850   2.057   1_455  S
O846        C848   1.267       .  A
C847       O1853   1.272   1_455  A
C847        O849   1.267       .  A
C851        C852   1.531       .  S
C851        C857   1.511       .  S
C851        C855   1.534       .  S
C851        C896   1.513       .  S
C852        H859   1.086       .  S
C852        C853   1.372       .  D
C853        C854   1.551       .  S
C853        C938   1.485       .  S
C854        C858   1.540       .  S
C854        C856   1.554       .  S
C854        H860   1.110       .  S
C855        H861   1.086       .  S
C855        C856   1.377       .  D
C856        C918   1.491       .  S
C857        H862   1.064       .  S
C857        C858   1.346       .  D
C863        C864   1.531       .  S
C863        C869   1.513       .  S
C863        C867   1.532       .  S
C863        C908   1.511       .  S
C864        H871   1.086       .  S
C864        C865   1.371       .  D
C865        C866   1.552       .  S
C865        C945   1.484       .  S
C866        C870   1.541       .  S
C866        C868   1.554       .  S
C866        H872   1.110       .  S
C867        H873   1.086       .  S
C867        C868   1.376       .  D
C868        C927   1.488       .  S
C869        H874   1.060       .  S
C869        C870   1.347       .  D
C875        C876   1.531       .  S
C875        C881   1.511       .  S
C875        C879   1.534       .  S
C875        C905   1.513       .  S
C876        H883   1.086       .  S
C876        C877   1.372       .  D
C877        C878   1.551       .  S
C877        C913   1.483       .  S
C878        C882   1.541       .  S
C878        C880   1.554       .  S
C878        H884   1.111       .  S
C879        H885   1.086       .  S
C879        C880   1.377       .  D
C880        C956   1.490       .  S
C881        H886   1.062       .  S
C881        C882   1.346       .  D
Fe887       O903   2.084       .  S
Fe887       O893   2.060       .  S
Fe887       O900   2.056       .  S
Fe887       O892   2.083       .  S
Fe887       O898   1.958       .  S
Fe888       O891   2.087       .  S
Fe888       O895   2.061       .  S
Fe888       O899   2.084       .  S
Fe888       O904   2.057       .  S
Fe888       O898   1.957       .  S
Fe889       O907   2.061       .  S
Fe889       O894   2.083       .  S
Fe889       O901   2.087       .  S
Fe889       O890   2.055       .  S
Fe889       O898   1.957       .  S
O890        C897   1.266       .  A
O891        C905   1.273       .  A
O892        C897   1.270       .  A
O893        C896   1.268       .  A
O894        C906   1.271       .  A
O895        C908   1.269       .  A
C896        O901   1.273       .  A
O899        C902   1.270       .  A
O900        C902   1.266       .  A
O903        C908   1.273       .  A
O904        C906   1.267       .  A
C905        O907   1.268       .  A
C909        C977   1.485       .  S
C909        C910   1.407       .  A
C910        C911   1.427       .  A
C910        H915   1.077       .  S
C911        C912   1.425       .  A
C911        C920   1.528       .  S
C912        H916   1.076       .  S
C913        C914   1.394       .  A
C914        H917   1.085       .  S
C918        C919   1.407       .  A
C918        C923   1.395       .  A
C919        C920   1.426       .  A
C919        H924   1.076       .  S
C920        C921   1.424       .  A
C921        C922   1.406       .  A
C921        H925   1.077       .  S
C922        C968   1.485       .  S
C922        C923   1.396       .  A
C923        H926   1.084       .  S
C927        C928   1.396       .  A
C928        H933   1.084       .  S
C929        C980   1.489       .  S
C929        C930   1.407       .  A
C930        C931   1.426       .  A
C930        H934   1.076       .  S
C931        C932   1.425       .  A
C931        C940   1.530       .  S
C932        H935   1.076       .  S
C936        C989   1.486       .  S
C936       C1957   1.394   1_455  A
C936        C941   1.407       .  A
C937       C1956   1.394       .  A
C937        C938   1.394       .  A
C937        H942   1.085       .  S
C938       C1959   1.405       .  A
C939       C1958   1.405   1_455  A
C939        C940   1.427       .  A
C939        H943   1.076       .  S
C940        C941   1.427       .  A
C941        H944   1.077       .  S
C945        C946   1.395       .  A
C945        C950   1.403       .  A
C946        C947   1.394       .  A
C946        H951   1.085       .  S
C947        C965   1.485       .  S
C947        C948   1.407       .  A
C948        C949   1.427       .  A
C948        H952   1.077       .  S
C949        C950   1.425       .  A
C949        C958   1.528       .  S
C950        H953   1.076       .  S
C954        C992   1.487   1_455  S
C954       C1975   1.397   1_455  A
C954        C959   1.406       .  A
C955       C1974   1.397       .  A
C955        C956   1.396       .  A
C955        H960   1.084       .  S
C956       C1977   1.406       .  A
C957       C1976   1.406   1_455  A
C957        C958   1.426       .  A
C957        H961   1.076       .  S
C958        C959   1.424       .  A
C959        H962   1.077       .  S
C963        C964   1.531       .  S
C963        C969   1.510       .  S
C963        C967   1.533       .  S
C963       C1008   1.509       .  S
C964        H971   1.086       .  S
C964        C965   1.375       .  D
C965        C966   1.556       .  S
C966        C970   1.538       .  S
C966        C968   1.547       .  S
C966        H972   1.111       .  S
C967        H973   1.086       .  S
C967        C968   1.372       .  D
C969        H974   1.065       .  S
C969        C970   1.347       .  D
C975        C976   1.531       .  S
C975        C979   1.534       .  S
C975       C1017   1.511       .  S
C976        H983   1.086       .  S
C977        C978   1.556       .  S
C978        C982   1.538       .  S
C978        C980   1.548       .  S
C978        H984   1.110       .  S
C979        H985   1.086       .  S
C981        H986   1.064       .  S
C981        C982   1.347       .  D
C987        C988   1.531       .  S
C987        C993   1.509       .  S
C987        C991   1.534       .  S
C987       C1020   1.510       .  S
C988        H995   1.086       .  S
C988       C2009   1.376       .  D
C989        C990   1.556       .  S
C989       C2008   1.376   1_455  D
C990        C994   1.539       .  S
C990        C992   1.548   1_455  S
C990        H996   1.111       .  S
C991        H997   1.086       .  S
C991       C2012   1.372       .  D
C992       C2011   1.372       .  D
C993        H998   1.066       .  S
C993       C2014   1.346       .  D
C994       C2013   1.346   1_455  D
Fe999      O1015   2.078       .  S
Fe999      O1005   2.072       .  S
Fe999      O1012   2.069       .  S
Fe999      O1004   2.074   1_556  S
Fe999      O1010   1.946       .  S
Fe1000     O1003   2.076       .  S
Fe1000     O1007   2.074       .  S
Fe1000     O1011   2.070   1_556  S
Fe1000     O1016   2.072       .  S
Fe1000     O1010   1.945       .  S
Fe1001     O1019   2.075       .  S
Fe1001     O1006   2.074   1_556  S
Fe1001     O1013   2.077       .  S
Fe1001     O1002   2.069       .  S
Fe1001     O1010   1.945       .  S
O1002      C1009   1.270   1_556  A
O1003      C1017   1.270       .  A
O1004      C1009   1.268       .  A
O1005      C1008   1.273       .  A
O1006      C1018   1.268       .  A
O1007      C1020   1.273       .  A
C1008      O1013   1.270       .  A
O1011      C1014   1.267       .  A
O1012      C1014   1.271   1_556  A
O1015      C1020   1.270       .  A
O1016      C1018   1.271   1_556  A
C1017      O1019   1.273       .  A
C1021      C1022   1.530       .  S
C1021      C1027   1.513       .  S
C1021      C1025   1.532       .  S
C1021      C1076   1.508       .  S
C1022      H1029   1.086       .  S
C1022      C1023   1.370       .  D
C1023      C1024   1.550       .  S
C1023      C1083   1.482       .  S
C1024      C1028   1.539       .  S
C1024      C1026   1.553       .  S
C1024      H1030   1.111       .  S
C1025      H1031   1.086       .  S
C1025      C1026   1.376       .  D
C1026      C1108   1.486       .  S
C1027      H1032   1.065   1_554  S
C1027      C1028   1.347       .  D
C1028      C1519   1.466       .  S
C1033      C1034   1.530       .  S
C1033      C1037   1.533       .  S
C1033      C1067   1.508       .  S
C1034      H1041   1.086       .  S
C1035      C1036   1.550       .  S
C1035      C1097   1.483       .  S
C1036      C1040   1.539       .  S
C1036      C1038   1.553       .  S
C1036      H1042   1.110       .  S
C1037      H1043   1.086       .  S
C1038      C1177   1.488       .  S
C1039      H1044   1.066   1_554  S
C1039      C1040   1.345       .  D
C1040      C1524   1.463       .  S
C1045      C1046   1.531       .  S
C1045      C1051   1.512       .  S
C1045      C1049   1.531       .  S
C1045      C1072   1.509       .  S
C1046      H1053   1.086       .  S
C1046      C1557   1.370       .  D
C1047      C1048   1.549       .  S
C1047      C1556   1.370   1_545  D
C1047      C1182   1.482       .  S
C1048      C1052   1.540       .  S
C1048      C1050   1.553       .  S
C1048      H1054   1.111       .  S
C1049      H1055   1.086       .  S
C1049      C1560   1.375       .  D
C1050      C1559   1.375   1_545  D
C1050      C1088   1.485       .  S
C1051      H1056   1.065   1_554  S
C1051      C1562   1.346       .  D
C1052      C1561   1.346   1_545  D
C1052      C1528   1.468       .  S
Fe1057     O1073   2.080       .  S
Fe1057     O1063   2.051       .  S
Fe1057     O1070   2.057   1_556  S
Fe1057     O1062   2.084   1_556  S
Fe1057     O1068   1.960       .  S
Fe1058     O1061   2.081       .  S
Fe1058     O1065   2.051       .  S
Fe1058     O1069   2.084   1_556  S
Fe1058     O1074   2.055   1_556  S
Fe1058     O1068   1.958       .  S
Fe1059     O1077   2.050       .  S
Fe1059     O1064   2.083   1_556  S
Fe1059     O1071   2.081       .  S
Fe1059     O1060   2.054   1_556  S
Fe1059     O1068   1.961       .  S
O1060      C1067   1.267       .  A
O1061      C1075   1.270       .  A
O1062      C1067   1.273       .  A
O1063      C1066   1.265       .  A
O1064      C1076   1.273       .  A
O1065      C1078   1.265       .  A
C1066      C1504   1.464       .  S
C1066      O1071   1.270       .  A
O1069      C1072   1.272       .  A
O1070      C1072   1.267       .  A
O1073      C1078   1.270       .  A
O1074      C1076   1.267       .  A
C1075      C1480   1.464       .  S
C1075      O1077   1.265       .  A
C1078      C1492   1.464       .  S
C1079      C1129   1.484       .  S
C1079      C1080   1.405       .  A
C1079      C1084   1.394       .  A
C1080      C1081   1.425       .  A
C1080      H1085   1.077       .  S
C1081      C1082   1.425       .  A
C1081      C1092   1.526       .  S
C1082      C1083   1.403       .  A
C1082      H1086   1.076       .  S
C1083      C1084   1.395       .  A
C1084      H1087   1.085       .  S
C1088      C1599   1.395   1_545  A
C1088      C1093   1.405       .  A
C1089      C1598   1.395       .  A
C1089      C1090   1.396       .  A
C1089      H1094   1.084       .  S
C1090      C1144   1.486       .  S
C1090      C1601   1.405       .  A
C1091      C1600   1.405   1_545  A
C1091      C1092   1.424       .  A
C1091      H1095   1.076       .  S
C1092      C1093   1.424       .  A
C1093      H1096   1.076       .  S
C1097      C1102   1.405       .  A
C1098      C1099   1.392       .  A
C1098      H1103   1.085       .  S
C1099      C1141   1.484       .  S
C1100      C1101   1.427       .  A
C1100      H1104   1.076       .  S
C1101      C1102   1.426       .  A
C1101      C1110   1.530       .  S
C1102      H1105   1.076       .  S
C1106      C1120   1.486       .  S
C1106      C1107   1.395       .  A
C1106      C1111   1.407       .  A
C1107      C1108   1.394       .  A
C1107      H1112   1.084       .  S
C1108      C1109   1.407       .  A
C1109      C1110   1.426       .  A
C1109      H1113   1.076       .  S
C1110      C1111   1.425       .  A
C1111      H1114   1.076       .  S
C1115      C1116   1.530       .  S
C1115      C1121   1.510       .  S
C1115      C1119   1.533       .  S
C1115      C1160   1.508       .  S
C1116      H1123   1.086       .  S
C1116      C1117   1.375       .  D
C1117      C1118   1.558       .  S
C1117      C1184   1.486       .  S
C1118      C1122   1.538       .  S
C1118      C1120   1.547       .  S
C1118      H1124   1.110       .  S
C1119      H1125   1.086       .  S
C1119      C1120   1.373       .  D
C1121      H1126   1.065       .  S
C1121      C1122   1.347       .  D
C1122      C1354   1.464       .  S
C1127      C1128   1.531       .  S
C1127      C1133   1.510       .  S
C1127      C1131   1.533       .  S
C1127      C1172   1.511       .  S
C1128      H1135   1.086       .  S
C1128      C1129   1.375       .  D
C1129      C1130   1.556       .  S
C1130      C1134   1.538       .  S
C1130      C1132   1.546       .  S
C1130      H1136   1.111       .  S
C1131      H1137   1.086       .  S
C1131      C1132   1.373       .  D
C1132      C1173   1.485       .  S
C1133      H1138   1.064       .  S
C1133      C1134   1.347       .  D
C1134      C1349   1.466       .  S
C1139      C1140   1.530       .  S
C1139      C1145   1.510       .  S
C1139      C1143   1.533       .  S
C1139      C1169   1.509       .  S
C1140      H1147   1.086       .  S
C1140      C1141   1.376       .  D
C1141      C1142   1.556       .  S
C1142      C1146   1.539       .  S
C1142      C1144   1.547       .  S
C1142      H1148   1.110       .  S
C1143      H1149   1.086       .  S
C1143      C1144   1.372       .  D
C1145      H1150   1.065       .  S
C1145      C1146   1.347       .  D
C1146      C1358   1.467       .  S
Fe1151     O1167   2.080       .  S
Fe1151     O1157   2.069       .  S
Fe1151     O1164   2.066       .  S
Fe1151     O1156   2.076       .  S
Fe1151     O1162   1.947       .  S
Fe1152     O1155   2.078       .  S
Fe1152     O1159   2.073       .  S
Fe1152     O1163   2.074       .  S
Fe1152     O1168   2.074       .  S
Fe1152     O1162   1.946       .  S
Fe1153     O1171   2.071       .  S
Fe1153     O1158   2.072       .  S
Fe1153     O1165   2.077       .  S
Fe1153     O1154   2.067       .  S
Fe1153     O1162   1.946       .  S
O1154      C1161   1.270       .  A
O1155      C1169   1.269       .  A
O1156      C1161   1.268       .  A
O1157      C1160   1.272       .  A
O1158      C1170   1.267       .  A
O1159      C1172   1.273       .  A
C1160      O1165   1.270       .  A
C1161      C1334   1.466       .  S
O1163      C1166   1.268       .  A
O1164      C1166   1.270       .  A
C1166      C1322   1.465       .  S
O1167      C1172   1.270       .  A
O1168      C1170   1.272       .  A
C1169      O1171   1.272       .  A
C1170      C1310   1.468       .  S
C1173      C1178   1.395       .  A
C1174      C1175   1.424       .  A
C1174      H1179   1.077       .  S
C1175      C1176   1.426       .  A
C1175      C1186   1.528       .  S
C1176      C1177   1.407       .  A
C1176      H1180   1.076       .  S
C1178      H1181   1.084       .  S
C1182      C1693   1.394   1_545  A
C1182      C1187   1.403       .  A
C1183      C1692   1.394       .  A
C1183      C1184   1.394       .  A
C1183      H1188   1.085       .  S
C1184      C1695   1.407       .  A
C1185      C1694   1.407   1_545  A
C1185      C1186   1.428       .  A
C1185      H1189   1.077       .  S
C1186      C1187   1.425       .  A
C1187      H1190   1.076       .  S
C1191      C1192   1.532       .  S
C1191      C1197   1.509       .  S
C1191      C1195   1.532       .  S
C1191      C1248   1.513       .  S
C1192      C1193   1.376       .  D
C1193      C1194   1.557       .  S
C1193      C1276   1.487       .  S
C1194      C1198   1.539       .  S
C1194      C1196   1.549       .  S
C1194      H1200   1.110       .  S
C1195      H1201   1.086       .  S
C1195      C1196   1.373       .  D
C1196      C1285   1.487       .  S
C1197      H1202   1.064       .  S
C1197      C1198   1.347       .  D
C1198      C1407   1.467       .  S
C1203      C1204   1.532       .  S
C1203      C1209   1.509       .  S
C1203      C1207   1.532       .  S
C1203      C1245   1.513       .  S
C1204      H1721   1.086   1_545  S
C1204      C1205   1.376       .  D
C1205      C1206   1.554       .  S
C1205      C1262   1.484       .  S
C1206      C1210   1.539       .  S
C1206      C1208   1.548       .  S
C1206      H1212   1.111       .  S
C1207      H1213   1.086       .  S
C1207      C1208   1.373       .  D
C1208      C1269   1.486       .  S
C1209      H1214   1.062       .  S
C1209      C1210   1.347       .  D
C1210      C1416   1.467       .  S
H1211      C1714   1.086       .  S
C1215      C1216   1.531       .  S
C1215      C1221   1.510       .  S
C1215      C1219   1.533       .  S
C1215      C1236   1.511       .  S
C1216      H1223   1.086       .  S
C1216      C1217   1.376       .  D
C1217      C1218   1.555       .  S
C1217      C1294   1.485       .  S
C1218      C1222   1.539       .  S
C1218      C1220   1.549       .  S
C1218      H1224   1.110       .  S
C1219      H1735   1.086   1_545  S
C1219      C1220   1.373       .  D
C1220      C1249   1.487       .  S
C1221      H1226   1.059       .  S
C1221      C1222   1.348       .  D
C1222      C1412   1.468       .  S
H1225      C1729   1.086       .  S
Fe1227     O1743   2.074       .  S
Fe1227     O1232   2.079       .  S
Fe1228     O1231   2.081       .  S
Fe1228     O1235   2.076       .  S
Fe1228     O1239   2.075       .  S
Fe1228     O1754   2.073       .  S
Fe1228     O1238   1.945       .  S
Fe1229     O1241   2.079       .  S
Fe1229     O1230   2.075       .  S
O1230      C1237   1.272       .  A
O1231      C1755   1.270       .  A
O1232      C1747   1.269       .  A
O1233     Fe1737   2.073   1_545  S
O1233      C1236   1.273       .  A
O1234      C1246   1.268       .  A
O1235      C1248   1.274       .  A
C1236      O1241   1.270       .  A
C1237      C1380   1.472       .  S
C1237      O1742   1.269       .  A
O1239      C1242   1.268       .  A
O1240      C1242   1.271       .  A
C1242      C1368   1.468       .  S
O1243      C1248   1.270       .  A
O1244     Fe1738   2.073   1_545  S
O1244      C1246   1.272       .  A
C1245      O1741   1.270   1_545  A
C1245      O1247   1.273       .  A
C1246      C1392   1.469       .  S
C1249      C1250   1.407       .  A
C1249      C1254   1.396   1_545  A
C1250      C1251   1.424   1_545  A
C1250      H1255   1.077       .  S
C1251      C1762   1.424       .  A
C1251      C1770   1.527       .  S
C1252      C1761   1.424       .  A
C1252      C1253   1.405       .  A
C1252      H1256   1.076       .  S
C1253      C1308   1.487       .  S
C1253      C1764   1.396       .  A
C1254      C1763   1.396       .  A
C1254      H1257   1.084       .  S
C1258      C1329   1.484       .  S
C1258      C1259   1.404       .  A
C1258      C1263   1.394       .  A
C1259      C1260   1.425       .  A
C1259      H1264   1.077       .  S
C1260      C1771   1.426       .  A
C1260      C1761   1.527       .  S
C1261      C1770   1.426   1_545  A
C1261      C1262   1.406       .  A
C1261      H1265   1.077       .  S
C1262      C1773   1.394   1_545  A
C1263      C1772   1.394       .  A
C1263      H1266   1.085       .  S
C1267      C1320   1.489       .  S
C1267      C1268   1.395       .  A
C1267      C1272   1.409       .  A
C1268      H1273   1.084       .  S
C1269      C1270   1.405       .  A
C1270      C1271   1.423       .  A
C1270      H1274   1.076       .  S
C1271      C1278   1.528       .  S
C1272      H1275   1.077       .  S
C1276      C1277   1.407       .  A
C1276      C1281   1.393       .  A
C1277      C1278   1.428       .  A
C1277      H1282   1.077       .  S
C1279      C1280   1.404       .  A
C1279      H1283   1.077       .  S
C1280      C1305   1.481       .  S
C1281      H1284   1.085       .  S
C1285      C1286   1.406       .  A
C1285      C1290   1.396       .  A
C1286      C1287   1.424       .  A
C1286      H1291   1.077       .  S
C1287      C1288   1.426       .  A
C1287      C1298   1.528       .  S
C1288      C1289   1.408       .  A
C1288      H1292   1.077       .  S
C1289      C1332   1.489       .  S
C1289      C1290   1.395       .  A
C1290      H1293   1.084       .  S
C1294      C1295   1.393       .  A
C1294      C1299   1.407       .  A
C1295      C1296   1.394       .  A
C1295      H1300   1.085       .  S
C1296      C1317   1.483       .  S
C1296      C1297   1.405       .  A
C1297      C1298   1.425       .  A
C1297      H1301   1.077       .  S
C1298      C1299   1.427       .  A
C1299      H1302   1.077       .  S
C1303      C1304   1.530       .  S
C1303      C1309   1.512       .  S
C1303      C1307   1.531       .  S
C1303      C1357   1.506       .  S
C1304      C1305   1.371       .  D
C1305      C1306   1.549       .  S
C1306      C1310   1.540       .  S
C1306      C1308   1.554       .  S
C1306      H1312   1.110       .  S
C1307      H1823   1.086       .  S
C1307      C1308   1.375       .  D
C1309      H1314   1.065       .  S
C1309      C1310   1.346       .  D
H1313      C1817   1.086       .  S
C1315      C1316   1.531       .  S
C1315      C1321   1.512       .  S
C1315      C1319   1.533       .  S
C1315      C1348   1.511       .  S
C1316      H1323   1.086       .  S
C1316      C1317   1.371       .  D
C1317      C1318   1.550       .  S
C1318      C1322   1.538       .  S
C1318      C1320   1.552       .  S
C1318      H1324   1.110       .  S
C1319      C1320   1.377       .  D
C1321      H1326   1.065       .  S
C1321      C1322   1.346       .  D
C1327      C1328   1.532       .  S
C1327      C1333   1.512       .  S
C1327      C1331   1.532       .  S
C1327      C1360   1.511       .  S
C1328      H1845   1.086       .  S
C1328      C1329   1.371       .  D
C1329      C1330   1.551       .  S
C1330      C1334   1.539       .  S
C1330      C1332   1.554       .  S
C1330      H1336   1.111       .  S
C1331      H1337   1.086       .  S
C1331      C1332   1.377       .  D
C1333      H1338   1.065       .  S
C1333      C1334   1.346       .  D
H1335      C1838   1.086   1_545  S
Fe1339     O1865   2.085   1_545  S
Fe1339     O1862   2.052   1_545  S
Fe1339     O1344   2.084   1_655  S
Fe1339     O1860   1.953   1_545  S
Fe1340     O1343   2.082       .  S
Fe1340     O1347   2.060       .  S
Fe1340     O1351   2.083       .  S
Fe1340     O1350   1.955       .  S
Fe1341     O1869   2.053   1_545  S
Fe1341     O1856   2.083   1_545  S
Fe1341     O1353   2.087       .  S
Fe1341     O1342   2.053       .  S
O1342      C1349   1.266       .  A
O1345      C1348   1.268       .  A
O1346     Fe1851   2.083       .  S
O1346      C1358   1.271       .  A
O1347      C1360   1.269       .  A
C1348      O1353   1.273       .  A
O1350     Fe1849   1.953       .  S
O1351      C1354   1.271       .  A
O1352     Fe1849   2.052       .  S
O1352      C1354   1.266       .  A
O1355     Fe1849   2.085       .  S
O1355      C1360   1.273       .  A
O1356      C1358   1.267       .  A
C1357      O1359   1.267       .  A
O1359     Fe1851   2.053       .  S
C1361      C1362   1.531       .  S
C1361      C1367   1.511       .  S
C1361      C1365   1.534       .  S
C1361      C1406   1.513       .  S
C1362      H1369   1.086       .  S
C1362      C1363   1.372       .  D
C1363      C1364   1.551       .  S
C1363      C1448   1.485       .  S
C1364      C1368   1.540       .  S
C1364      C1366   1.554       .  S
C1364      H1370   1.110       .  S
C1365      H1371   1.086       .  S
C1365      C1366   1.377       .  D
C1366      C1428   1.491       .  S
C1367      H1372   1.064       .  S
C1367      C1368   1.346       .  D
C1373      C1374   1.531       .  S
C1373      C1379   1.513       .  S
C1373      C1377   1.532       .  S
C1373      C1418   1.511       .  S
C1374      H1381   1.086       .  S
C1374      C1375   1.371       .  D
C1375      C1376   1.552       .  S
C1375      C1455   1.484       .  S
C1376      C1380   1.541       .  S
C1376      C1378   1.554       .  S
C1376      H1382   1.110       .  S
C1377      H1383   1.086       .  S
C1377      C1378   1.376       .  D
C1378      C1437   1.488       .  S
C1379      H1384   1.060       .  S
C1379      C1380   1.347       .  D
C1385      C1386   1.531       .  S
C1385      C1391   1.511       .  S
C1385      C1389   1.534       .  S
C1385      C1415   1.513       .  S
C1386      H1393   1.086       .  S
C1386      C1387   1.372       .  D
C1387      C1388   1.551       .  S
C1387      C1423   1.483       .  S
C1388      C1392   1.541       .  S
C1388      C1390   1.554       .  S
C1388      H1394   1.111       .  S
C1389      H1395   1.086       .  S
C1389      C1390   1.377       .  D
C1390      C1466   1.490       .  S
C1391      H1396   1.062       .  S
C1391      C1392   1.346       .  D
Fe1397     O1413   2.084       .  S
Fe1397     O1403   2.060       .  S
Fe1397     O1410   2.056       .  S
Fe1397     O1402   2.083       .  S
Fe1397     O1408   1.958       .  S
Fe1398     O1401   2.087       .  S
Fe1398     O1405   2.061       .  S
Fe1398     O1409   2.084       .  S
Fe1398     O1414   2.057       .  S
Fe1398     O1408   1.957       .  S
Fe1399     O1417   2.061       .  S
Fe1399     O1404   2.083       .  S
Fe1399     O1411   2.087       .  S
Fe1399     O1400   2.055       .  S
Fe1399     O1408   1.957       .  S
O1400      C1407   1.266       .  A
O1401      C1415   1.273       .  A
O1402      C1407   1.270       .  A
O1403      C1406   1.268       .  A
O1404      C1416   1.271       .  A
O1405      C1418   1.269       .  A
C1406      O1411   1.273       .  A
O1409      C1412   1.270       .  A
O1410      C1412   1.266       .  A
O1413      C1418   1.273       .  A
O1414      C1416   1.267       .  A
C1415      O1417   1.268       .  A
C1419      C1487   1.485       .  S
C1419      C1420   1.407       .  A
C1419      C1934   1.393       .  A
C1420      C1421   1.427       .  A
C1420      H1425   1.077       .  S
C1421      C1422   1.425       .  A
C1421      C1430   1.528       .  S
C1422      C1933   1.404       .  A
C1422      H1426   1.076       .  S
C1423      C1932   1.404   1_545  A
C1423      C1424   1.394       .  A
C1424      C1929   1.393   1_545  A
C1424      H1427   1.085       .  S
C1428      C1429   1.407       .  A
C1428      C1433   1.395       .  A
C1429      C1430   1.426       .  A
C1429      H1434   1.076       .  S
C1430      C1431   1.424       .  A
C1431      C1432   1.406       .  A
C1431      H1435   1.077       .  S
C1432      C1478   1.485       .  S
C1432      C1433   1.396       .  A
C1433      H1436   1.084       .  S
C1437      C1438   1.396       .  A
C1437      C1952   1.406   1_545  A
C1438      C1949   1.397   1_545  A
C1438      H1443   1.084       .  S
C1439      C1490   1.489       .  S
C1439      C1948   1.397       .  A
C1439      C1440   1.407       .  A
C1440      C1441   1.426       .  A
C1440      H1444   1.076       .  S
C1441      C1442   1.425       .  A
C1441      C1450   1.530       .  S
C1442      C1947   1.406       .  A
C1442      H1445   1.076       .  S
C1446      C1499   1.486       .  S
C1446      C1451   1.407       .  A
C1447      C1448   1.394       .  A
C1447      H1452   1.085       .  S
C1449      C1450   1.427       .  A
C1449      H1453   1.076       .  S
C1450      C1451   1.427       .  A
C1451      H1454   1.077       .  S
C1455      C1456   1.395       .  A
C1455      C1460   1.403       .  A
C1456      C1457   1.394       .  A
C1456      H1461   1.085       .  S
C1457      C1475   1.485       .  S
C1457      C1458   1.407       .  A
C1458      C1459   1.427       .  A
C1458      H1462   1.077       .  S
C1459      C1460   1.425       .  A
C1459      C1468   1.528       .  S
C1460      H1463   1.076       .  S
C1464      C1502   1.487       .  S
C1464      C1469   1.406       .  A
C1465      C1466   1.396       .  A
C1465      H1470   1.084       .  S
C1467      C1468   1.426       .  A
C1467      H1471   1.076       .  S
C1468      C1469   1.424       .  A
C1469      H1472   1.077       .  S
C1473      C1474   1.531       .  S
C1473      C1479   1.510       .  S
C1473      C1477   1.533       .  S
C1473      C1518   1.509       .  S
C1474      H1481   1.086       .  S
C1474      C1475   1.375       .  D
C1475      C1476   1.556       .  S
C1476      C1480   1.538       .  S
C1476      C1478   1.547       .  S
C1476      H1482   1.111       .  S
C1477      H1483   1.086       .  S
C1477      C1478   1.372       .  D
C1479      H1484   1.065       .  S
C1479      C1480   1.347       .  D
C1485      C1486   1.531       .  S
C1485      C2001   1.509   1_545  S
C1485      C1489   1.534       .  S
C1485      C1527   1.511       .  S
C1486      H1493   1.086       .  S
C1486      C1997   1.375   1_545  D
C1487      C1488   1.556       .  S
C1487      C1996   1.375       .  D
C1488      C1492   1.538       .  S
C1488      C1490   1.548       .  S
C1488      H1494   1.110       .  S
C1489      H1495   1.086       .  S
C1489      C2000   1.373   1_545  D
C1490      C1999   1.373       .  D
C1491      C1995   1.509       .  S
C1491      H1496   1.064       .  S
C1491      C1492   1.347       .  D
C1497      C1498   1.531       .  S
C1497      C1503   1.509       .  S
C1497      C1501   1.534       .  S
C1497      C1530   1.510       .  S
C1498      H1505   1.086       .  S
C1499      C1500   1.556       .  S
C1500      C1504   1.539       .  S
C1500      C1502   1.548       .  S
C1500      H1506   1.111       .  S
C1501      H1507   1.086       .  S
C1503      H1508   1.066       .  S
Fe1509     O1525   2.078       .  S
Fe1509     O1515   2.072       .  S
Fe1509     O1522   2.069       .  S
Fe1509     O1514   2.074   1_556  S
Fe1509     O1520   1.946       .  S
Fe1510     O1513   2.076       .  S
Fe1510     O1517   2.074       .  S
Fe1510     O1521   2.070   1_556  S
Fe1510     O1526   2.072       .  S
Fe1510     O1520   1.945       .  S
Fe1511     O1529   2.075       .  S
Fe1511     O1516   2.074   1_556  S
Fe1511     O1523   2.077       .  S
Fe1511     O1512   2.069       .  S
Fe1511     O1520   1.945       .  S
O1512      C1519   1.270   1_556  A
O1513      C1527   1.270       .  A
O1514      C1519   1.268       .  A
O1515      C1518   1.273       .  A
O1516      C1528   1.268       .  A
O1517      C1530   1.273       .  A
C1518      O1523   1.270       .  A
O1521      C1524   1.267       .  A
O1522      C1524   1.271   1_556  A
O1525      C1530   1.270       .  A
O1526      C1528   1.271   1_556  A
C1527      O1529   1.273       .  A
C1531      C1532   1.530       .  S
C1531      C1537   1.513       .  S
C1531      C1535   1.532       .  S
C1531      C1586   1.508       .  S
C1532      H1539   1.086       .  S
C1532      C1533   1.370       .  D
C1533      C1534   1.550       .  S
C1533      C1593   1.482       .  S
C1534      C1538   1.539       .  S
C1534      C1536   1.553       .  S
C1534      H1540   1.111       .  S
C1535      H1541   1.086       .  S
C1535      C1536   1.376       .  D
C1536      C1618   1.486       .  S
C1537      H1542   1.065   1_554  S
C1537      C1538   1.347       .  D
C1538      C2029   1.467       .  S
C1543      C1544   1.530       .  S
C1543      C1547   1.533       .  S
C1543      C1577   1.508       .  S
C1544      H1551   1.086       .  S
C1545      C1546   1.550       .  S
C1545      C1607   1.483       .  S
C1546      C1550   1.539       .  S
C1546      C1548   1.553       .  S
C1546      H1552   1.110       .  S
C1547      H1553   1.086       .  S
C1548      C1687   1.488       .  S
C1549      H1554   1.066   1_554  S
C1549      C1550   1.345       .  D
C1550      C2034   1.463       .  S
C1555      C1556   1.531       .  S
C1555      C1561   1.512       .  S
C1555      C1559   1.531       .  S
C1555      C1582   1.509       .  S
C1556      H1563   1.086       .  S
C1557      C1558   1.549       .  S
C1557      C1692   1.482       .  S
C1558      C1562   1.540       .  S
C1558      C1560   1.553       .  S
C1558      H1564   1.111       .  S
C1559      H1565   1.086       .  S
C1560      C1598   1.485       .  S
C1561      H1566   1.065   1_554  S
C1562      C2038   1.468       .  S
Fe1567     O1583   2.080       .  S
Fe1567     O1573   2.051       .  S
Fe1567     O1580   2.057   1_556  S
Fe1567     O1572   2.084   1_556  S
Fe1567     O1578   1.960       .  S
Fe1568     O1571   2.081       .  S
Fe1568     O1575   2.051       .  S
Fe1568     O1579   2.084   1_556  S
Fe1568     O1584   2.055   1_556  S
Fe1568     O1578   1.958       .  S
Fe1569     O1587   2.050       .  S
Fe1569     O1574   2.083   1_556  S
Fe1569     O1581   2.081       .  S
Fe1569     O1570   2.054   1_556  S
Fe1569     O1578   1.961       .  S
O1570      C1577   1.267       .  A
O1571      C1585   1.270       .  A
O1572      C1577   1.273       .  A
O1573      C1576   1.265       .  A
O1574      C1586   1.273       .  A
O1575      C1588   1.265       .  A
C1576      C2014   1.464       .  S
C1576      O1581   1.270       .  A
O1579      C1582   1.272       .  A
O1580      C1582   1.267       .  A
O1583      C1588   1.270       .  A
O1584      C1586   1.267       .  A
C1585      C1990   1.464       .  S
C1585      O1587   1.265       .  A
C1588      C2002   1.464       .  S
C1589      C1639   1.484       .  S
C1589      C1590   1.405       .  A
C1589      C1594   1.394       .  A
C1590      C1591   1.425       .  A
C1590      H1595   1.077       .  S
C1591      C1592   1.425       .  A
C1591      C1602   1.526       .  S
C1592      C1593   1.403       .  A
C1592      H1596   1.076       .  S
C1593      C1594   1.395       .  A
C1594      H1597   1.085       .  S
C1598      C1603   1.405       .  A
C1599      C1600   1.396       .  A
C1599      H1604   1.084       .  S
C1600      C1654   1.486       .  S
C1601      C1602   1.424       .  A
C1601      H1605   1.076       .  S
C1602      C1603   1.424       .  A
C1603      H1606   1.076       .  S
C1607      C1612   1.405       .  A
C1608      C1609   1.392       .  A
C1608      H1613   1.085       .  S
C1609      C1651   1.484       .  S
C1610      C1611   1.427       .  A
C1610      H1614   1.076       .  S
C1611      C1612   1.426       .  A
C1611      C1620   1.530       .  S
C1612      H1615   1.076       .  S
C1616      C1630   1.486       .  S
C1616      C1617   1.395       .  A
C1616      C1621   1.407       .  A
C1617      C1618   1.394       .  A
C1617      H1622   1.084       .  S
C1618      C1619   1.407       .  A
C1619      C1620   1.426       .  A
C1619      H1623   1.076       .  S
C1620      C1621   1.425       .  A
C1621      H1624   1.076       .  S
C1625      C1626   1.530       .  S
C1625      C1631   1.510       .  S
C1625      C1629   1.533       .  S
C1625      C1670   1.508       .  S
C1626      H1633   1.086       .  S
C1626      C1627   1.375       .  D
C1627      C1628   1.558       .  S
C1627      C1694   1.486       .  S
C1628      C1632   1.538       .  S
C1628      C1630   1.547       .  S
C1628      H1634   1.110       .  S
C1629      H1635   1.086       .  S
C1629      C1630   1.373       .  D
C1631      H1636   1.065       .  S
C1631      C1632   1.347       .  D
C1632      C1864   1.464       .  S
C1637      C1638   1.531       .  S
C1637      C1643   1.510       .  S
C1637      C1641   1.533       .  S
C1637      C1682   1.511       .  S
C1638      H1645   1.086       .  S
C1638      C1639   1.375       .  D
C1639      C1640   1.556       .  S
C1640      C1644   1.538       .  S
C1640      C1642   1.546       .  S
C1640      H1646   1.111       .  S
C1641      H1647   1.086       .  S
C1641      C1642   1.373       .  D
C1642      C1683   1.486       .  S
C1643      H1648   1.064       .  S
C1643      C1644   1.347       .  D
C1644      C1859   1.466       .  S
C1649      C1650   1.530       .  S
C1649      C1655   1.510       .  S
C1649      C1653   1.533       .  S
C1649      C1679   1.509       .  S
C1650      H1657   1.086       .  S
C1650      C1651   1.376       .  D
C1651      C1652   1.556       .  S
C1652      C1656   1.539       .  S
C1652      C1654   1.547       .  S
C1652      H1658   1.110       .  S
C1653      H1659   1.086       .  S
C1653      C1654   1.372       .  D
C1655      H1660   1.065       .  S
C1655      C1656   1.347       .  D
C1656      C1868   1.467       .  S
Fe1661     O1677   2.080       .  S
Fe1661     O1667   2.069       .  S
Fe1661     O1674   2.066       .  S
Fe1661     O1666   2.076       .  S
Fe1661     O1672   1.947       .  S
Fe1662     O1665   2.078       .  S
Fe1662     O1669   2.073       .  S
Fe1662     O1673   2.074       .  S
Fe1662     O1678   2.074       .  S
Fe1662     O1672   1.946       .  S
Fe1663     O1681   2.071       .  S
Fe1663     O1668   2.072       .  S
Fe1663     O1675   2.077       .  S
Fe1663     O1664   2.067       .  S
Fe1663     O1672   1.946       .  S
O1664      C1671   1.270       .  A
O1665      C1679   1.269       .  A
O1666      C1671   1.268       .  A
O1667      C1670   1.272       .  A
O1668      C1680   1.267       .  A
O1669      C1682   1.273       .  A
C1670      O1675   1.270       .  A
C1671      C1844   1.466       .  S
O1673      C1676   1.268       .  A
O1674      C1676   1.270       .  A
C1676      C1832   1.465       .  S
O1677      C1682   1.270       .  A
O1678      C1680   1.272       .  A
C1679      O1681   1.272       .  A
C1680      C1820   1.468       .  S
C1683      C1688   1.395       .  A
C1684      C1685   1.424       .  A
C1684      H1689   1.077       .  S
C1685      C1686   1.426       .  A
C1685      C1696   1.528       .  S
C1686      C1687   1.407       .  A
C1686      H1690   1.076       .  S
C1688      H1691   1.084       .  S
C1692      C1697   1.403       .  A
C1693      C1694   1.394       .  A
C1693      H1698   1.085       .  S
C1695      C1696   1.428       .  A
C1695      H1699   1.077       .  S
C1696      C1697   1.425       .  A
C1697      H1700   1.076       .  S
C1701      C1702   1.532       .  S
C1701      C1707   1.510       .  S
C1701      C1705   1.532       .  S
C1701      C1758   1.513       .  S
C1702      C1703   1.376       .  D
C1703      C1704   1.557       .  S
C1703      C1786   1.487       .  S
C1704      C1708   1.539       .  S
C1704      C1706   1.549       .  S
C1704      H1710   1.110       .  S
C1705      H1711   1.086       .  S
C1705      C1706   1.373       .  D
C1706      C1795   1.487       .  S
C1707      H1712   1.064       .  S
C1707      C1708   1.347       .  D
C1708      C1917   1.467       .  S
C1713      C1714   1.532       .  S
C1713      C1719   1.509       .  S
C1713      C1717   1.532       .  S
C1713      C1755   1.513       .  S
C1714      C1715   1.376       .  D
C1715      C1716   1.554       .  S
C1715      C1772   1.484       .  S
C1716      C1720   1.539       .  S
C1716      C1718   1.548       .  S
C1716      H1722   1.111       .  S
C1717      H1723   1.086       .  S
C1717      C1718   1.373       .  D
C1718      C1779   1.486       .  S
C1719      H1724   1.062       .  S
C1719      C1720   1.347       .  D
C1720      C1926   1.467       .  S
C1725      C1726   1.531       .  S
C1725      C1731   1.510       .  S
C1725      C1729   1.533       .  S
C1725      C1746   1.511       .  S
C1726      H1733   1.086       .  S
C1726      C1727   1.376       .  D
C1727      C1728   1.555       .  S
C1727      C1804   1.485       .  S
C1728      C1732   1.539       .  S
C1728      C1730   1.549       .  S
C1728      H1734   1.110       .  S
C1729      C1730   1.373       .  D
C1730      C1759   1.487       .  S
C1731      H1736   1.059       .  S
C1731      C1732   1.347       .  D
C1732      C1922   1.468       .  S
Fe1737     O1742   2.079   1_565  S
Fe1738     O1741   2.081       .  S
Fe1738     O1745   2.076       .  S
Fe1738     O1749   2.075       .  S
Fe1738     O1748   1.945       .  S
Fe1739     O1751   2.079       .  S
Fe1739     O1740   2.075       .  S
O1740      C1747   1.272       .  A
O1743      C1746   1.273       .  A
O1744      C1756   1.268       .  A
O1745      C1758   1.274       .  A
C1746      O1751   1.270       .  A
C1747      C1890   1.472       .  S
O1749      C1752   1.268       .  A
O1750      C1752   1.271       .  A
C1752      C1878   1.468       .  S
O1753      C1758   1.270       .  A
O1754      C1756   1.272       .  A
C1755      O1757   1.273       .  A
C1756      C1902   1.469       .  S
C1759      C1760   1.407       .  A
C1759      C1764   1.396       .  A
C1760      C1761   1.424       .  A
C1760      H1765   1.077       .  S
C1762      C1763   1.405       .  A
C1762      H1766   1.076       .  S
C1763      C1818   1.487       .  S
C1764      H1767   1.084       .  S
C1768      C1839   1.484       .  S
C1768      C1769   1.404       .  A
C1768      C1773   1.394       .  A
C1769      C1770   1.425       .  A
C1769      H1774   1.077       .  S
C1771      C1772   1.406       .  A
C1771      H1775   1.077       .  S
C1773      H1776   1.085   1_565  S
C1777      C1830   1.489       .  S
C1777      C1778   1.395       .  A
C1777      C1782   1.409       .  A
C1778      H1783   1.084       .  S
C1779      C1780   1.405       .  A
C1780      C1781   1.423       .  A
C1780      H1784   1.076       .  S
C1781      C1788   1.528       .  S
C1782      H1785   1.077       .  S
C1786      C1787   1.407       .  A
C1786      C1791   1.393       .  A
C1787      C1788   1.428       .  A
C1787      H1792   1.077       .  S
C1789      C1790   1.404       .  A
C1789      H1793   1.077       .  S
C1790      C1815   1.481       .  S
C1791      H1794   1.085       .  S
C1795      C1796   1.406       .  A
C1795      C1800   1.396       .  A
C1796      C1797   1.424       .  A
C1796      H1801   1.077       .  S
C1797      C1798   1.426       .  A
C1797      C1808   1.528       .  S
C1798      C1799   1.408       .  A
C1798      H1802   1.077       .  S
C1799      C1842   1.489       .  S
C1799      C1800   1.395       .  A
C1800      H1803   1.084       .  S
C1804      C1805   1.393       .  A
C1804      C1809   1.407       .  A
C1805      C1806   1.394       .  A
C1805      H1810   1.085       .  S
C1806      C1827   1.483       .  S
C1806      C1807   1.405       .  A
C1807      C1808   1.425       .  A
C1807      H1811   1.077       .  S
C1808      C1809   1.427       .  A
C1809      H1812   1.077       .  S
C1813      C1814   1.530       .  S
C1813      C1819   1.512       .  S
C1813      C1817   1.531       .  S
C1813      C1867   1.506       .  S
C1814      C1815   1.371       .  D
C1815      C1816   1.549       .  S
C1816      C1820   1.540       .  S
C1816      C1818   1.554       .  S
C1816      H1822   1.110       .  S
C1817      C1818   1.375       .  D
C1819      H1824   1.065       .  S
C1819      C1820   1.346       .  D
C1825      C1826   1.531       .  S
C1825      C1831   1.512       .  S
C1825      C1829   1.533       .  S
C1825      C1858   1.511       .  S
C1826      H1833   1.086       .  S
C1826      C1827   1.371       .  D
C1827      C1828   1.550       .  S
C1828      C1832   1.538       .  S
C1828      C1830   1.552       .  S
C1828      H1834   1.110       .  S
C1829      C1830   1.377       .  D
C1831      H1836   1.065       .  S
C1831      C1832   1.346       .  D
C1837      C1838   1.532       .  S
C1837      C1843   1.512       .  S
C1837      C1841   1.532       .  S
C1837      C1870   1.511       .  S
C1838      C1839   1.371       .  D
C1839      C1840   1.551       .  S
C1840      C1844   1.539       .  S
C1840      C1842   1.554       .  S
C1840      H1846   1.111       .  S
C1841      H1847   1.086       .  S
C1841      C1842   1.377       .  D
C1843      H1848   1.065       .  S
C1843      C1844   1.346       .  D
Fe1849     O1854   2.084   1_655  S
Fe1850     O1853   2.082       .  S
Fe1850     O1857   2.060       .  S
Fe1850     O1861   2.083       .  S
Fe1850     O1860   1.955       .  S
Fe1851     O1863   2.087       .  S
Fe1851     O1852   2.053       .  S
O1852      C1859   1.266       .  A
O1855      C1858   1.268       .  A
O1856      C1868   1.271       .  A
O1857      C1870   1.269       .  A
C1858      O1863   1.273       .  A
O1861      C1864   1.271       .  A
O1862      C1864   1.266       .  A
O1865      C1870   1.273       .  A
O1866      C1868   1.267       .  A
C1867      O1869   1.267       .  A
C1871      C1872   1.531       .  S
C1871      C1877   1.511       .  S
C1871      C1875   1.534       .  S
C1871      C1916   1.513       .  S
C1872      H1879   1.086       .  S
C1872      C1873   1.372       .  D
C1873      C1874   1.551       .  S
C1873      C1958   1.485       .  S
C1874      C1878   1.540       .  S
C1874      C1876   1.554       .  S
C1874      H1880   1.110       .  S
C1875      H1881   1.086       .  S
C1875      C1876   1.377       .  D
C1876      C1938   1.491       .  S
C1877      H1882   1.064       .  S
C1877      C1878   1.346       .  D
C1883      C1884   1.531       .  S
C1883      C1889   1.513       .  S
C1883      C1887   1.532       .  S
C1883      C1928   1.511       .  S
C1884      H1891   1.086       .  S
C1884      C1885   1.371       .  D
C1885      C1886   1.552       .  S
C1885      C1965   1.484       .  S
C1886      C1890   1.541       .  S
C1886      C1888   1.554       .  S
C1886      H1892   1.110       .  S
C1887      H1893   1.086       .  S
C1887      C1888   1.376       .  D
C1888      C1947   1.488       .  S
C1889      H1894   1.060       .  S
C1889      C1890   1.347       .  D
C1895      C1896   1.531       .  S
C1895      C1901   1.511       .  S
C1895      C1899   1.534       .  S
C1895      C1925   1.513       .  S
C1896      H1903   1.086       .  S
C1896      C1897   1.372       .  D
C1897      C1898   1.551       .  S
C1897      C1933   1.483       .  S
C1898      C1902   1.541       .  S
C1898      C1900   1.554       .  S
C1898      H1904   1.111       .  S
C1899      H1905   1.086       .  S
C1899      C1900   1.377       .  D
C1900      C1976   1.490       .  S
C1901      H1906   1.062       .  S
C1901      C1902   1.346       .  D
Fe1907     O1923   2.084       .  S
Fe1907     O1913   2.060       .  S
Fe1907     O1920   2.056       .  S
Fe1907     O1912   2.083       .  S
Fe1907     O1918   1.958       .  S
Fe1908     O1911   2.087       .  S
Fe1908     O1915   2.061       .  S
Fe1908     O1919   2.084       .  S
Fe1908     O1924   2.057       .  S
Fe1908     O1918   1.957       .  S
Fe1909     O1927   2.061       .  S
Fe1909     O1914   2.083       .  S
Fe1909     O1921   2.087       .  S
Fe1909     O1910   2.055       .  S
Fe1909     O1918   1.957       .  S
O1910      C1917   1.266       .  A
O1911      C1925   1.273       .  A
O1912      C1917   1.270       .  A
O1913      C1916   1.268       .  A
O1914      C1926   1.271       .  A
O1915      C1928   1.269       .  A
C1916      O1921   1.273       .  A
O1919      C1922   1.270       .  A
O1920      C1922   1.266       .  A
O1923      C1928   1.273       .  A
O1924      C1926   1.267       .  A
C1925      O1927   1.268       .  A
C1929      C1997   1.485       .  S
C1929      C1930   1.407       .  A
C1930      C1931   1.427       .  A
C1930      H1935   1.077       .  S
C1931      C1932   1.425       .  A
C1931      C1940   1.528       .  S
C1932      H1936   1.076       .  S
C1933      C1934   1.394       .  A
C1934      H1937   1.085       .  S
C1938      C1939   1.407       .  A
C1938      C1943   1.395       .  A
C1939      C1940   1.426       .  A
C1939      H1944   1.076       .  S
C1940      C1941   1.424       .  A
C1941      C1942   1.406       .  A
C1941      H1945   1.077       .  S
C1942      C1988   1.485       .  S
C1942      C1943   1.396       .  A
C1943      H1946   1.084       .  S
C1947      C1948   1.396       .  A
C1948      H1953   1.084       .  S
C1949      C2000   1.489       .  S
C1949      C1950   1.407       .  A
C1950      C1951   1.426       .  A
C1950      H1954   1.076       .  S
C1951      C1952   1.425       .  A
C1951      C1960   1.530       .  S
C1952      H1955   1.076       .  S
C1956      C2009   1.486       .  S
C1956      C1961   1.407       .  A
C1957      C1958   1.394       .  A
C1957      H1962   1.085       .  S
C1959      C1960   1.427       .  A
C1959      H1963   1.076       .  S
C1960      C1961   1.427       .  A
C1961      H1964   1.077       .  S
C1965      C1966   1.395       .  A
C1965      C1970   1.403       .  A
C1966      C1967   1.394       .  A
C1966      H1971   1.085       .  S
C1967      C1985   1.485       .  S
C1967      C1968   1.407       .  A
C1968      C1969   1.427       .  A
C1968      H1972   1.077       .  S
C1969      C1970   1.425       .  A
C1969      C1978   1.528       .  S
C1970      H1973   1.076       .  S
C1974      C2012   1.487       .  S
C1974      C1979   1.406       .  A
C1975      C1976   1.396       .  A
C1975      H1980   1.084       .  S
C1977      C1978   1.426       .  A
C1977      H1981   1.076       .  S
C1978      C1979   1.424       .  A
C1979      H1982   1.077       .  S
C1983      C1984   1.531       .  S
C1983      C1989   1.510       .  S
C1983      C1987   1.533       .  S
C1983      C2028   1.509       .  S
C1984      H1991   1.086       .  S
C1984      C1985   1.375       .  D
C1985      C1986   1.556       .  S
C1986      C1990   1.538       .  S
C1986      C1988   1.547       .  S
C1986      H1992   1.111       .  S
C1987      H1993   1.086       .  S
C1987      C1988   1.372       .  D
C1989      H1994   1.065       .  S
C1989      C1990   1.347       .  D
C1995      C1996   1.531       .  S
C1995      C1999   1.534       .  S
C1995      C2037   1.511       .  S
C1996      H2003   1.086       .  S
C1997      C1998   1.556       .  S
C1998      C2002   1.538       .  S
C1998      C2000   1.548       .  S
C1998      H2004   1.110       .  S
C1999      H2005   1.086       .  S
C2001      H2006   1.064       .  S
C2001      C2002   1.347       .  D
C2007      C2008   1.531       .  S
C2007      C2013   1.509       .  S
C2007      C2011   1.534       .  S
C2007      C2040   1.510       .  S
C2008      H2015   1.086       .  S
C2009      C2010   1.556       .  S
C2010      C2014   1.539       .  S
C2010      C2012   1.548       .  S
C2010      H2016   1.111       .  S
C2011      H2017   1.086       .  S
C2013      H2018   1.066       .  S
Fe2019     O2035   2.078       .  S
Fe2019     O2025   2.072       .  S
Fe2019     O2032   2.069       .  S
Fe2019     O2024   2.074   1_556  S
Fe2019     O2030   1.946       .  S
Fe2020     O2023   2.076       .  S
Fe2020     O2027   2.074       .  S
Fe2020     O2031   2.070   1_556  S
Fe2020     O2036   2.072       .  S
Fe2020     O2030   1.945       .  S
Fe2021     O2039   2.075       .  S
Fe2021     O2026   2.074   1_556  S
Fe2021     O2033   2.077       .  S
Fe2021     O2022   2.069       .  S
Fe2021     O2030   1.945       .  S
O2022      C2029   1.270   1_556  A
O2023      C2037   1.270       .  A
O2024      C2029   1.268       .  A
O2025      C2028   1.273       .  A
O2026      C2038   1.268       .  A
O2027      C2040   1.273       .  A
C2028      O2033   1.270       .  A
O2031      C2034   1.267       .  A
O2032      C2034   1.271   1_556  A
O2035      C2040   1.270       .  A
O2036      C2038   1.271   1_556  A
C2037      O2039   1.273       .  A
