geometry optimzed in LAMMPS
_audit_creation_date              2020-11-30 
_audit_creation_method            'lammps2cif' 
_symmetry_space_group_name_H-M    'P1' 
_symmetry_Int_Tables_number       1 
_symmetry_cell_setting            triclinic 
loop_ 
_symmetry_equiv_pos_as_xyz 
  x,y,z 
_cell_length_a                    29.93362142 
_cell_length_b                    49.00308488772276 
_cell_length_c                    45.73070782068177 
_cell_angle_alpha                 90.05502375527306 
_cell_angle_beta                  89.97348980380767 
_cell_angle_gamma                 89.83782094806753 
loop_ 
_atom_site_label 
_atom_site_type_symbol 
_atom_site_fract_x 
_atom_site_fract_y 
_atom_site_fract_z 
_atom_site_charge 
C1          C  0.50246128  0.48171028  0.02312470     0.02200
C2          C  0.04292898  0.49220219  0.01165626     0.02200
C3          C  0.04095964  0.01291490  0.49039582     0.02200
C4          C  0.99915378  0.02131638  0.47907684     0.02200
C5          C  0.45877774  0.01110756  0.49075323     0.02200
C6          C  0.46068650  0.49038393  0.01191360     0.02200
O7          O  0.02853615  0.10422611  0.37465691    -0.85400
O8          O  0.06722599  0.08780748  0.32333035    -0.82400
C9          C  0.07182162  0.08336052  0.29636413     0.98100
O10         O  0.05396424  0.09937168  0.27789380    -0.82500
O11         O  0.46404626  0.08864856  0.28169291    -0.85100
C12         C  0.42602363  0.08672764  0.29328902     1.02600
O13         O  0.41296032  0.10410977  0.31189975    -0.77900
O14         O  0.46200306  0.09084409  0.36047047    -0.78100
C15         C  0.49464583  0.08919356  0.37768910     1.02600
O16         O  0.03957730  0.15981882  0.35761145    -0.85400
O17         O  0.08578092  0.14408136  0.30877780    -0.82400
C18         C  0.07147848  0.16041594  0.28953074     0.98100
O19         O  0.03333711  0.15733296  0.27841859    -0.82500
O20         O  0.44335305  0.14637605  0.27779612    -0.85100
C21         C  0.42651072  0.16350044  0.29557459     1.02600
O22         O  0.43294638  0.16089274  0.32263535    -0.77900
O23         O  0.47406716  0.14708076  0.37415800    -0.78000
C24         C  0.50806569  0.16222979  0.37562961     1.02500
Cr25       Cr  0.05143025  0.12394455  0.33946979     1.93700
Cr26       Cr  0.49878800  0.12301826  0.28183925     1.93200
Cr27       Cr  0.44927821  0.12568089  0.34059412     1.39100
O28         O  0.49985195  0.12421630  0.32058508    -1.23100
C29         C  0.00467083  0.23310431  0.47491157     0.02200
C30         C  0.04427175  0.24267055  0.48821993     0.02200
C31         C  0.04128065  0.26247581  0.01021667     0.02200
C32         C  0.49899909  0.27069363  0.02075498     0.02200
C33         C  0.45920968  0.26130949  0.00752272     0.02200
C34         C  0.46220298  0.24149333  0.48533495     0.02200
O35         O  0.03020868  0.39333893  0.12533281    -0.85400
O36         O  0.07059942  0.40686229  0.17743596    -0.82400
C37         C  0.07558902  0.41001657  0.20463366     0.98100
O38         O  0.05680769  0.39385675  0.22247043    -0.82500
O39         O  0.46802136  0.40893931  0.22105604    -0.85100
C40         C  0.43092099  0.41392613  0.20904911     1.02600
O41         O  0.41605839  0.39856216  0.18914531    -0.77900
O42         O  0.46686150  0.41069057  0.14064919    -0.78100
C43         C  0.49908541  0.41053017  0.12282707     1.02600
O44         O  0.03327065  0.33737535  0.14076048    -0.85400
O45         O  0.08331325  0.34988621  0.18931878    -0.82400
C46         C  0.06789620  0.33300789  0.20744671     0.98100
O47         O  0.03023218  0.33696804  0.21912150    -0.82500
O48         O  0.44158105  0.35226828  0.22188964    -0.85100
C49         C  0.42207892  0.33707288  0.20346578     1.02600
O50         O  0.42694658  0.34113336  0.17642279    -0.77900
O51         O  0.46959225  0.35455386  0.12554746    -0.78000
C52         C  0.50099787  0.33752793  0.12304609     1.02500
Cr53       Cr  0.05046132  0.37204794  0.15992958     1.93700
Cr54       Cr  0.49921304  0.37304512  0.21818005     1.93200
Cr55       Cr  0.44862636  0.37603929  0.15968472     1.39100
O56         O  0.49933682  0.37376907  0.17936163    -1.23100
C57         C  0.24873561  0.01653109  0.27621455     0.02200
C58         C  0.20818636  0.00631920  0.26454654     0.02200
C59         C  0.20970529  0.48614338  0.24268847     0.02200
C60         C  0.25134587  0.47778047  0.23105301     0.02200
C61         C  0.29193470  0.48779559  0.24284400     0.02200
C62         C  0.29044810  0.00825717  0.26448453     0.02200
O63         O  0.21997504  0.41290054  0.10913280    -0.85400
O64         O  0.16827607  0.40202758  0.06082549    -0.82400
C65         C  0.18324205  0.41775844  0.04133433     0.98100
O66         O  0.22037554  0.41290268  0.02928616    -0.82500
O67         O  0.30871377  0.39694552  0.02708402    -0.85100
C68         C  0.32807113  0.41212944  0.04559369     1.02600
O69         O  0.32368742  0.40788165  0.07263727    -0.77900
O70         O  0.28241450  0.39422446  0.12418687    -0.78100
C71         C  0.25181890  0.41178602  0.12713187     1.02600
O72         O  0.22093846  0.35638330  0.12358260    -0.85400
O73         O  0.17816048  0.34459777  0.07225773    -0.82400
C74         C  0.17321147  0.34103236  0.04514935     0.98100
O75         O  0.19279711  0.35639400  0.02693704    -0.82500
O76         O  0.28130390  0.34036287  0.02794559    -0.85100
C77         C  0.31895345  0.33548932  0.03925889     1.02600
O78         O  0.33421294  0.35083653  0.05903592    -0.77900
O79         O  0.28329612  0.33831368  0.10735619    -0.78000
C80         C  0.25143175  0.33862680  0.12541386     1.02500
Cr81       Cr  0.20065074  0.37876936  0.08967655     1.93700
Cr82       Cr  0.25080749  0.37660520  0.03084044     1.93200
Cr83       Cr  0.30208425  0.37308483  0.08908410     1.39100
O84         O  0.25115423  0.37614162  0.06971826    -1.23100
C85         C  0.24843712  0.22920178  0.27055194     0.02200
C86         C  0.28939163  0.23832628  0.25873004     0.02200
C87         C  0.28914569  0.25818763  0.23657457     0.02200
C88         C  0.24795420  0.26701691  0.22468187     0.02200
C89         C  0.20684865  0.25746296  0.23620494     0.02200
C90         C  0.20733028  0.23733617  0.25812278     0.02200
O91         O  0.21788907  0.10755295  0.37697884    -0.85400
O92         O  0.17799731  0.09493988  0.42890721    -0.82400
C93         C  0.17427012  0.09077879  0.45599072     0.98100
O94         O  0.19420508  0.10602308  0.47422568    -0.82500
O95         O  0.28257558  0.09048532  0.47121058    -0.85100
C96         C  0.31948731  0.08561725  0.45892251     1.02600
O97         O  0.33400391  0.10124413  0.43921470    -0.77900
O98         O  0.28060593  0.08923607  0.39200922    -0.78100
C99         C  0.24793275  0.08959253  0.37458953     1.02600
O100        O  0.21749099  0.16394710  0.39241616    -0.85400
O101        O  0.16800226  0.15192509  0.44163791    -0.82400
C102        C  0.18384681  0.16758002  0.46086944     0.98100
O103        O  0.22147232  0.16279181  0.47217257    -0.82500
O104        O  0.30992648  0.14723106  0.47239835    -0.85100
C105        C  0.32895843  0.16234937  0.45365415     1.02600
O106        O  0.32323677  0.15832460  0.42668173    -0.77900
O107        O  0.27936748  0.14537036  0.37615240    -0.78000
C108        C  0.24880415  0.16301316  0.37396062     1.02500
Cr109      Cr  0.19923567  0.12941973  0.41169373     1.93700
Cr110      Cr  0.25193450  0.12664475  0.46952423     1.93200
Cr111      Cr  0.30055713  0.12378683  0.41028256     1.39100
O112        O  0.25058123  0.12667882  0.43066474    -1.23100
C113        C  0.25726402  0.18438330  0.29522861    -0.21300
C114        C  0.24847740  0.21228966  0.29717669    -0.09400
C115        C  0.24059431  0.22438230  0.32462082     0.29500
C116        C  0.23917824  0.20825514  0.34978220    -0.21300
C117        C  0.24828143  0.18028269  0.34783548    -0.09400
C118        C  0.25834534  0.16858236  0.32045329     0.29500
F119        F  0.26915872  0.14179561  0.31805532    -0.19900
H120        H  0.26405742  0.17501041  0.27422909     0.17800
H121        H  0.23235463  0.21764186  0.37077056     0.17800
F122        F  0.23420265  0.25174438  0.32690856    -0.19900
C123        C  0.26150505  0.27538081  0.17183705    -0.21300
C124        C  0.24860015  0.28559195  0.19928094    -0.09400
C125        C  0.23703818  0.31314890  0.20229804     0.29500
C126        C  0.23742656  0.33012233  0.17788809    -0.21300
C127        C  0.25095870  0.32004198  0.15046979    -0.09400
C128        C  0.26352727  0.29260569  0.14759953     0.29500
F129        F  0.27641651  0.28236475  0.12131622    -0.19900
H130        H  0.27009746  0.25402152  0.16930403     0.17800
H131        H  0.22791267  0.35133819  0.18049077     0.17800
F132        F  0.22535121  0.32350399  0.22876185    -0.19900
C133        C  0.24066562  0.47234078  0.17754454    -0.21300
C134        C  0.25180648  0.46051050  0.20454880    -0.09400
C135        C  0.26334572  0.43283650  0.20589461     0.29500
C136        C  0.26414210  0.41730111  0.18032875    -0.21300
C137        C  0.25185710  0.42896101  0.15339067    -0.09400
C138        C  0.23959904  0.45654318  0.15217048     0.29500
F139        F  0.22772354  0.46829209  0.12644457    -0.19900
H140        H  0.23233835  0.49383410  0.17628472     0.17800
H141        H  0.27347147  0.39596190  0.18163559     0.17800
F142        F  0.27394430  0.42100116  0.23180782    -0.19900
C143        C  0.23123598  0.06186968  0.29850580    -0.21300
C144        C  0.24786047  0.03531696  0.30152964    -0.09400
C145        C  0.26206916  0.02611283  0.32910817     0.29500
C146        C  0.26283681  0.04397471  0.35285100    -0.21300
C147        C  0.24612380  0.07053314  0.34986438    -0.09400
C148        C  0.22841962  0.07896751  0.32277023     0.29500
F149        F  0.20872277  0.10375238  0.31958318    -0.19900
H150        H  0.21937862  0.06905990  0.27751697     0.17800
H151        H  0.27534004  0.03687812  0.37373060     0.17800
F152        F  0.27471807  0.99975690  0.33305757    -0.19900
C153        C  0.10826556  0.30531702  0.24458356    -0.21300
C154        C  0.09587155  0.30939055  0.21541407    -0.09400
C155        C  0.11558998  0.29321659  0.19342626     0.29500
C156        C  0.14882311  0.27420003  0.20049615    -0.21300
C157        C  0.16424911  0.27196054  0.22936784    -0.09400
C158        C  0.14263993  0.28705683  0.25152714     0.29500
F159        F  0.15754529  0.28602827  0.27952611    -0.19900
H160        H  0.09385437  0.31785682  0.26170716     0.17800
H161        H  0.16467305  0.26259359  0.18317367     0.17800
F162        F  0.10406983  0.29669499  0.16496113    -0.19900
C163        C  0.33629568  0.29824005  0.24790924    -0.21300
C164        C  0.32976270  0.27480713  0.23081621    -0.09400
C165        C  0.35649858  0.27074522  0.20592039     0.29500
C166        C  0.38703466  0.29088260  0.19726843    -0.21300
C167        C  0.39208961  0.31499111  0.21372001    -0.09400
C168        C  0.36724512  0.31808933  0.23963192     0.29500
F169        F  0.37059937  0.34114784  0.25594202    -0.21100
H170        H  0.31549088  0.30185372  0.26692897     0.17800
H171        H  0.40630478  0.28783015  0.17747231     0.17800
F172        F  0.35162766  0.24800717  0.18929967    -0.19900
C173        C  0.39093150  0.43985258  0.24813433    -0.21300
C174        C  0.40296142  0.43714863  0.21865534    -0.09400
C175        C  0.38345351  0.45468229  0.19787198     0.29500
C176        C  0.35054291  0.47347169  0.20629368    -0.21300
C177        C  0.33516514  0.47420360  0.23529558    -0.09400
C178        C  0.35690820  0.45798424  0.25639810     0.29500
F179        F  0.34246103  0.45784156  0.28452948    -0.19900
H180        H  0.40538046  0.42641709  0.26440399     0.17800
H181        H  0.33471329  0.48602831  0.18978240     0.17800
F182        F  0.39488110  0.45279675  0.16920876    -0.19900
C183        C  0.12488875  0.42938383  0.24356699    -0.21300
C184        C  0.10530950  0.43188706  0.21576258    -0.09400
C185        C  0.11574641  0.45490948  0.19859632     0.29500
C186        C  0.14682166  0.47411377  0.20855370    -0.21300
C187        C  0.16893993  0.47026076  0.23526218    -0.09400
C188        C  0.15667468  0.44823888  0.25313992     0.29500
F189        F  0.17739213  0.44413061  0.27917462    -0.19900
H190        H  0.11724759  0.41205788  0.25736626     0.17800
H191        H  0.15525924  0.49128474  0.19476350     0.17800
F192        F  0.09663387  0.45862380  0.17197882    -0.19900
C193        C  0.10395997  0.21069986  0.50465753    -0.21300
C194        C  0.08753611  0.22840144  0.48296556    -0.09400
C195        C  0.10853155  0.22890419  0.45551236     0.29500
C196        C  0.14222074  0.20998566  0.44901590    -0.21300
C197        C  0.15650616  0.19105706  0.47011901    -0.09400
C198        C  0.13843100  0.19223586  0.49838823     0.29500
F199        F  0.15108555  0.17388340  0.51902026    -0.19900
H200        H  0.08792525  0.20991013  0.02586419     0.17800
H201        H  0.15588312  0.20929507  0.42708034     0.17800
F202        F  0.09454719  0.24647613  0.43449827    -0.19900
C203        C  0.41214668  0.20322802  0.99808257    -0.21300
C204        C  0.42275626  0.22436031  0.47866085    -0.09400
C205        C  0.39964931  0.22640811  0.45208873     0.29500
C206        C  0.36857747  0.20639344  0.44429637    -0.21300
C207        C  0.35936313  0.18442939  0.46319098    -0.09400
C208        C  0.38053630  0.18351483  0.49064239     0.29500
F209        F  0.37265078  0.16279876  0.00960596    -0.19900
H210        H  0.42986133  0.20139758  0.01865459     0.17800
H211        H  0.35203083  0.20791175  0.42329457     0.17800
F212        F  0.40781012  0.24731488  0.43345885    -0.19900
C213        C  0.09087124  0.30134481  0.99897478    -0.21300
C214        C  0.08091226  0.27932471  0.01738010    -0.09400
C215        C  0.10431631  0.27631782  0.04376612     0.29500
C216        C  0.13475471  0.29633223  0.05253960    -0.21300
C217        C  0.14322729  0.31915092  0.03472384    -0.09400
C218        C  0.12198151  0.32101597  0.00735761     0.29500
F219        F  0.12929464  0.34258337  0.48940270    -0.19900
H220        H  0.07293903  0.30390963  0.47858664     0.17800
H221        H  0.15142019  0.29412766  0.07343469     0.17800
F222        F  0.09672144  0.25459906  0.06142399    -0.19900
C223        C  0.39811829  0.29342005  0.49300100    -0.21300
C224        C  0.41575637  0.27528044  0.01386285    -0.09400
C225        C  0.39599051  0.27425728  0.04173166     0.29500
C226        C  0.36251730  0.29304469  0.04941831    -0.21300
C227        C  0.34705138  0.31243112  0.02912292    -0.09400
C228        C  0.36385402  0.31176602  0.00046033     0.29500
F229        F  0.35007382  0.33045125  0.48049920    -0.19900
H230        H  0.41299894  0.29462339  0.47145416     0.17800
H231        H  0.34977477  0.29314738  0.07158999     0.17800
F232        F  0.41081609  0.25614174  0.06196354    -0.19900
C233        C  0.50675678  0.27586092  0.07434415    -0.21300
C234        C  0.49723966  0.28777205  0.04712101    -0.09400
C235        C  0.98908656  0.31577968  0.04506771     0.29500
C236        C  0.99022299  0.33172597  0.07018881    -0.21300
C237        C  0.50098606  0.32000870  0.09732810    -0.09400
C238        C  0.50963812  0.29200630  0.09936055     0.29500
F239        F  0.51965493  0.28029570  0.12544624    -0.19900
H240        H  0.51274546  0.25410507  0.07598538     0.17800
H241        H  0.98339981  0.35337358  0.06842298     0.17800
F242        F  0.98068022  0.32762084  0.01882070    -0.19900
C243        C  0.14532307  0.22261554  0.29188766    -0.21300
C244        C  0.16624387  0.22124961  0.26445144    -0.09400
C245        C  0.15158995  0.20172642  0.24402603     0.29500
C246        C  0.11863600  0.18280322  0.25168175    -0.21300
C247        C  0.10046351  0.18287477  0.27991599    -0.09400
C248        C  0.11317378  0.20331428  0.29977436     0.29500
F249        F  0.09524590  0.20417180  0.32703106    -0.19900
H250        H  0.15522878  0.23787367  0.30767468     0.17800
H251        H  0.10911783  0.16716275  0.23614633     0.17800
F252        F  0.17117962  0.19991556  0.21731432    -0.19900
C253        C  0.37898044  0.18423086  0.25643730    -0.21300
C254        C  0.39676694  0.18567607  0.28481877    -0.09400
C255        C  0.38329312  0.20740552  0.30319386     0.29500
C256        C  0.35082552  0.22611639  0.29382320    -0.21300
C257        C  0.33122863  0.22346607  0.26613603    -0.09400
C258        C  0.34635631  0.20278529  0.24724118     0.29500
F259        F  0.32686546  0.19915622  0.22073071    -0.19900
H260        H  0.38850345  0.16781347  0.24182781     0.17800
H261        H  0.33917496  0.24177595  0.30873196     0.17800
F262        F  0.40027671  0.21010423  0.33056150    -0.19900
C263        C  0.37307309  0.06614213  0.25777916    -0.21300
C264        C  0.39568838  0.06462683  0.28453233    -0.09400
C265        C  0.38706698  0.04274659  0.30351890     0.29500
C266        C  0.35535598  0.02297076  0.29601345    -0.21300
C267        C  0.33061550  0.02540673  0.27006091    -0.09400
C268        C  0.34047962  0.04682867  0.25067039     0.29500
F269        F  0.31696876  0.04977286  0.22548910    -0.19900
H270        H  0.37931342  0.08295734  0.24297895     0.17800
H271        H  0.34899457  0.00639200  0.31099340     0.17800
F272        F  0.40861504  0.04087434  0.32955788    -0.19900
C273        C  0.11499463  0.04045970  0.30709049    -0.21300
C274        C  0.10037311  0.06009830  0.28665393    -0.09400
C275        C  0.11577992  0.05809298  0.25761347     0.29500
C276        C  0.14791780  0.03852452  0.25004752    -0.21300
C277        C  0.16528594  0.02058518  0.27111856    -0.09400
C278        C  0.14691159  0.02073843  0.29937260     0.29500
F279        F  0.16212568  0.50310680  0.31997077    -0.19900
H280        H  0.10310070  0.04103860  0.32945069     0.17800
H281        H  0.16178569  0.03872097  0.22816387     0.17800
F282        F  0.10230665  0.07617554  0.23693921    -0.19900
C283        C  0.00309185  0.20872725  0.39663742    -0.21300
C284        C  0.51195799  0.18092165  0.40028305    -0.09400
C285        C  0.52085789  0.17046551  0.42825742     0.29500
C286        C  0.51791946  0.18737832  0.45268412    -0.21300
C287        C  0.50756542  0.21502576  0.44919994    -0.09400
C288        C  0.00152875  0.22585521  0.42100795     0.29500
F289        F  0.99428835  0.25297823  0.41718663    -0.19900
H290        H  0.99668695  0.21699599  0.37507115     0.17800
H291        H  0.52396540  0.17904872  0.47426474     0.17800
F292        F  0.53279289  0.14397260  0.43182706    -0.19900
C293        C  0.36049396  0.05954306  0.49732607    -0.21300
C294        C  0.34762368  0.06230949  0.46802371    -0.09400
C295        C  0.36653182  0.04481015  0.44692192     0.29500
C296        C  0.39930000  0.02576421  0.45492223    -0.21300
C297        C  0.41543949  0.02489688  0.48375194    -0.09400
C298        C  0.39464972  0.04134062  0.50510089     0.29500
F299        F  0.41017846  0.04164029  0.53296561    -0.19900
H300        H  0.34665914  0.07303227  0.51380931     0.17800
H301        H  0.41453141  0.51316655  0.43819958     0.17800
F302        F  0.35469743  0.04698698  0.41835771    -0.19900
C303        C  0.10340406  0.02668722  0.45690541    -0.21300
C304        C  0.08119379  0.02944744  0.48371042    -0.09400
C305        C  0.09318573  0.05077211  0.50268001     0.29500
C306        C  0.12498234  0.07003727  0.49411615    -0.21300
C307        C  0.14483385  0.06853162  0.46632432    -0.09400
C308        C  0.13469918  0.04615615  0.44808760     0.29500
F309        F  0.15443259  0.04331397  0.42151941    -0.19900
H310        H  0.09519237  0.51007161  0.44232444     0.17800
H311        H  0.13242605  0.08687694  0.50866178     0.17800
F312        F  0.07223703  0.05379586  0.52882559    -0.19900
C313        C  0.00402839  0.04390766  0.40046994    -0.21300
C314        C  0.49239901  0.07142022  0.40306497    -0.09400
C315        C  0.48204202  0.08252087  0.43056072     0.29500
C316        C  0.48557806  0.06645830  0.45557227    -0.21300
C317        C  0.49787992  0.03899822  0.45307264    -0.09400
C318        C  0.00609672  0.02758793  0.42535915     0.29500
F319        F  0.01577466  0.00063253  0.42251202    -0.19900
H320        H  0.01180249  0.03520199  0.37925629     0.17800
H321        H  0.47785392  0.07516974  0.47678840     0.17800
F322        F  0.46784114  0.10871913  0.43306087    -0.19900
C323        C  0.39648965  0.47710848  0.04421645    -0.21300
C324        C  0.42049586  0.47372977  0.01814345    -0.09400
C325        C  0.41079542  0.45151852  0.49985009     0.29500
C326        C  0.37930428  0.43209024  0.00834227    -0.21300
C327        C  0.35753858  0.43433556  0.03544622    -0.09400
C328        C  0.36547958  0.45746491  0.05300223     0.29500
F329        F  0.34385642  0.46087799  0.07885359    -0.19900
H330        H  0.40340614  0.49419032  0.05849468     0.17800
H331        H  0.37359172  0.41460098  0.49437246     0.17800
F332        F  0.43379098  0.44778396  0.47455430    -0.19900
C333        C  0.13680056  0.45835520  0.05404251    -0.21300
C334        C  0.15533779  0.44128909  0.03244867    -0.09400
C335        C  0.14192582  0.44467243  0.00325925     0.29500
C336        C  0.10741805  0.46298559  0.49637646    -0.21300
C337        C  0.08640262  0.47849964  0.01835646    -0.09400
C338        C  0.10330182  0.47725862  0.04698904     0.29500
F339        F  0.08554559  0.49311382  0.06840217    -0.19900
H340        H  0.14716548  0.45629024  0.07664133     0.17800
H341        H  0.09497745  0.46369022  0.47414071     0.17800
F342        F  0.15914339  0.42851366  0.48191566    -0.19900
C343        C  0.48952384  0.47340951  0.07592125    -0.21300
C344        C  0.50289150  0.46317973  0.04858080    -0.09400
C345        C  0.01514258  0.43570195  0.04578511     0.29500
C346        C  0.01436190  0.41878457  0.07029769    -0.21300
C347        C  0.49980557  0.42886982  0.09753208    -0.09400
C348        C  0.48713163  0.45627290  0.10017521     0.29500
F349        F  0.47376038  0.46659784  0.12630296    -0.19900
H350        H  0.48048554  0.49471149  0.07830053     0.17800
H351        H  0.02436847  0.39765055  0.06792364     0.17800
F352        F  0.02753882  0.42532080  0.01946215    -0.19900
C353        C  0.50245678  0.48172128  0.52313867     0.02200
C354        C  0.04292663  0.49220959  0.51166825     0.02200
C355        C  0.04096177  0.01292266  0.99040914     0.02200
C356        C  0.99915880  0.02132624  0.97908786     0.02200
C357        C  0.45878031  0.01112170  0.99076370     0.02200
C358        C  0.46068307  0.49039784  0.51192806     0.02200
O359        O  0.02857904  0.10423165  0.87465337    -0.85400
O360        O  0.06725378  0.08781365  0.82332019    -0.82400
C361        C  0.07184668  0.08336780  0.79635354     0.98100
O362        O  0.05398177  0.09937702  0.77788354    -0.82500
O363        O  0.46405853  0.08865067  0.78167089    -0.85100
C364        C  0.42605692  0.08670630  0.79329303     1.02600
O365        O  0.41299600  0.10407720  0.81191669    -0.77900
O366        O  0.46205813  0.09083419  0.86047333    -0.78100
C367        C  0.49470205  0.08919313  0.87769077     1.02600
O368        O  0.03959345  0.15982313  0.85759866    -0.85400
O369        O  0.08579508  0.14408573  0.80876215    -0.82400
C370        C  0.07148379  0.16042114  0.78951912     0.98100
O371        O  0.03333762  0.15733886  0.77841510    -0.82500
O372        O  0.44335763  0.14637286  0.77779445    -0.85100
C373        C  0.42650433  0.16348813  0.79557801     1.02600
O374        O  0.43293488  0.16087212  0.82263840    -0.77900
O375        O  0.47409233  0.14707677  0.87415149    -0.78000
C376        C  0.50808492  0.16223123  0.87561748     1.02500
Cr377      Cr  0.05145418  0.12394907  0.83945920     1.93700
Cr378      Cr  0.49879764  0.12302064  0.78183085     1.93200
Cr379      Cr  0.44930418  0.12566562  0.84059643     1.39100
O380        O  0.49987022  0.12421219  0.82057845    -1.23100
C381        C  0.00466322  0.23311001  0.97489455     0.02200
C382        C  0.04426174  0.24267720  0.98820533     0.02200
C383        C  0.04129553  0.26247130  0.51022981     0.02200
C384        C  0.49901462  0.27069250  0.52076966     0.02200
C385        C  0.45922340  0.26130976  0.50753918     0.02200
C386        C  0.46219372  0.24149610  0.98531513     0.02200
O387        O  0.03020010  0.39334847  0.62534255    -0.85400
O388        O  0.07058078  0.40687426  0.67744697    -0.82400
C389        C  0.07556844  0.41002766  0.70464484     0.98100
O390        O  0.05678978  0.39386584  0.72248075    -0.82500
O391        O  0.46800058  0.40893764  0.72106777    -0.85100
C392        C  0.43090072  0.41392333  0.70905986     1.02600
O393        O  0.41604360  0.39856257  0.68915160    -0.77900
O394        O  0.46684955  0.41069791  0.64065952    -0.78100
C395        C  0.49907419  0.41053991  0.62283816     1.02600
O396        O  0.03327215  0.33738525  0.64076935    -0.85400
O397        O  0.08331006  0.34990082  0.68932869    -0.82400
C398        C  0.06789617  0.33301930  0.70745400     0.98100
O399        O  0.03022979  0.33697437  0.71912739    -0.82500
O400        O  0.44157721  0.35226449  0.72189361    -0.85100
C401        C  0.42207766  0.33707060  0.70346731     1.02600
O402        O  0.42694288  0.34113558  0.67642488    -0.77900
O403        O  0.46959245  0.35456123  0.62555269    -0.78000
C404        C  0.50100084  0.33753673  0.62305334     1.02500
Cr405      Cr  0.05045391  0.37205894  0.65993918     1.93700
Cr406      Cr  0.49920250  0.37304751  0.71818780     1.93200
Cr407      Cr  0.44861855  0.37604381  0.65969075     1.39100
O408        O  0.49932757  0.37377528  0.67936961    -1.23100
C409        C  0.24874291  0.01650418  0.77623860     0.02200
C410        C  0.20819751  0.00630561  0.76455461     0.02200
C411        C  0.20969012  0.48615012  0.74269156     0.02200
C412        C  0.25132898  0.47778067  0.73105861     0.02200
C413        C  0.29191770  0.48779940  0.74284320     0.02200
C414        C  0.29046304  0.00823769  0.76450624     0.02200
O415        O  0.21998478  0.41290276  0.60913575    -0.85400
O416        O  0.16828252  0.40203091  0.56083003    -0.82400
C417        C  0.18324444  0.41776147  0.54133726     0.98100
O418        O  0.22037655  0.41290595  0.52928676    -0.82500
O419        O  0.30871813  0.39695372  0.52708567    -0.85100
C420        C  0.32807286  0.41213838  0.54559601     1.02600
O421        O  0.32369056  0.40788965  0.57263948    -0.77900
O422        O  0.28242385  0.39422701  0.62419024    -0.78100
C423        C  0.25182695  0.41178764  0.62713595     1.02600
O424        O  0.22095344  0.35638455  0.62358219    -0.85400
O425        O  0.17817125  0.34460079  0.57225985    -0.82400
C426        C  0.17322304  0.34103356  0.54515177     0.98100
O427        O  0.19280734  0.35639494  0.52693849    -0.82500
O428        O  0.28131644  0.34036853  0.52794666    -0.85100
C429        C  0.31896698  0.33549692  0.53925958     1.02600
O430        O  0.33422627  0.35084661  0.55903434    -0.77900
O431        O  0.28331206  0.33831764  0.60735345    -0.78000
C432        C  0.25144824  0.33862879  0.62541141     1.02500
Cr433      Cr  0.20066105  0.37877206  0.58967875     1.93700
Cr434      Cr  0.25081484  0.37660975  0.53084145     1.93200
Cr435      Cr  0.30209452  0.37309095  0.58908440     1.39100
O436        O  0.25116326  0.37614616  0.56971926    -1.23100
C437        C  0.24843292  0.22920127  0.77054535     0.02200
C438        C  0.28939286  0.23831861  0.75872171     0.02200
C439        C  0.28915264  0.25817895  0.73656479     0.02200
C440        C  0.24796335  0.26701585  0.72467484     0.02200
C441        C  0.20685464  0.25747138  0.73620173     0.02200
C442        C  0.20732909  0.23734426  0.75811837     0.02200
O443        O  0.21785081  0.10755157  0.87697392    -0.85400
O444        O  0.17796554  0.09495247  0.92891017    -0.82400
C445        C  0.17424771  0.09079345  0.95599475     0.98100
O446        O  0.19419029  0.10603730  0.97422636    -0.82500
O447        O  0.28255758  0.09048777  0.97121111    -0.85100
C448        C  0.31946528  0.08561272  0.95892038     1.02600
O449        O  0.33397834  0.10123123  0.93920461    -0.77900
O450        O  0.28055381  0.08922020  0.89201070    -0.78100
C451        C  0.24787870  0.08958060  0.87459233     1.02600
O452        O  0.21748675  0.16394707  0.89240568    -0.85400
O453        O  0.16799640  0.15194002  0.94163125    -0.82400
C454        C  0.18384786  0.16759448  0.96086052     0.98100
O455        O  0.22147337  0.16280268  0.97216216    -0.82500
O456        O  0.30992269  0.14723094  0.97238254    -0.85100
C457        C  0.32896109  0.16234094  0.95363353     1.02600
O458        O  0.32323861  0.15830943  0.92666196    -0.77900
O459        O  0.27934882  0.14535335  0.87614225    -0.78000
C460        C  0.24879869  0.16300424  0.87394950     1.02500
Cr461      Cr  0.19921612  0.12942598  0.91168909     1.93700
Cr462      Cr  0.25192464  0.12665109  0.96951763     1.93200
Cr463      Cr  0.30053343  0.12377221  0.91027270     1.39100
O464        O  0.25056372  0.12667870  0.93065817    -1.23100
C465        C  0.25738785  0.18439551  0.79522895    -0.21300
C466        C  0.24846205  0.21228619  0.79716816    -0.09400
C467        C  0.24045738  0.22436398  0.82460487     0.29500
C468        C  0.23904703  0.20823266  0.84976279    -0.21300
C469        C  0.24829274  0.18027668  0.84782559    -0.09400
C470        C  0.25849299  0.16859692  0.82045396     0.29500
F471        F  0.26946412  0.14183291  0.81806451    -0.19900
H472        H  0.26428094  0.17503502  0.77423697     0.17800
H473        H  0.23211954  0.21760647  0.87074328     0.17800
F474        F  0.23395109  0.25171644  0.82689002    -0.19900
C475        C  0.26151158  0.27537996  0.67182981    -0.21300
C476        C  0.24861400  0.28559163  0.69927500    -0.09400
C477        C  0.23706257  0.31314987  0.70229450     0.29500
C478        C  0.23745252  0.33012409  0.67788556    -0.21300
C479        C  0.25097784  0.32004334  0.65046616    -0.09400
C480        C  0.26353847  0.29260600  0.64759350     0.29500
F481        F  0.27642336  0.28236528  0.62130915    -0.19900
H482        H  0.27009468  0.25401957  0.66929493     0.17800
H483        H  0.22794427  0.35134065  0.68048971     0.17800
F484        F  0.22538270  0.32350524  0.72875950    -0.19900
C485        C  0.24065965  0.47234000  0.67755020    -0.21300
C486        C  0.25179139  0.46050908  0.70455553    -0.09400
C487        C  0.26332866  0.43283465  0.70590216     0.29500
C488        C  0.26413487  0.41730009  0.68033550    -0.21300
C489        C  0.25186024  0.42896121  0.65339598    -0.09400
C490        C  0.23960247  0.45654335  0.65217539     0.29500
F491        F  0.22773657  0.46829328  0.62644817    -0.19900
H492        H  0.23233286  0.49383335  0.67628983     0.17800
H493        H  0.27346285  0.39596077  0.68164272     0.17800
F494        F  0.27391280  0.42099749  0.73181693    -0.19900
C495        C  0.23136722  0.06187345  0.79848774    -0.21300
C496        C  0.24783056  0.03528795  0.80155292    -0.09400
C497        C  0.26179189  0.02604698  0.82917108     0.29500
C498        C  0.26255808  0.04391331  0.85291083    -0.21300
C499        C  0.24605415  0.07051484  0.84987513    -0.09400
C500        C  0.22853391  0.07898302  0.82274281     0.29500
F501        F  0.20900741  0.10381243  0.81951164    -0.19900
H502        H  0.21965139  0.06908159  0.77747137     0.17800
H503        H  0.27489636  0.03679139  0.87382268     0.17800
F504        F  0.27422246  0.99965676  0.83315570    -0.19900
C505        C  0.10827850  0.30533161  0.74458706    -0.21300
C506        C  0.09587740  0.30940409  0.71541884    -0.09400
C507        C  0.11559589  0.29323262  0.69342898     0.29500
C508        C  0.14883027  0.27421603  0.70049612    -0.21300
C509        C  0.16426003  0.27197536  0.72936679    -0.09400
C510        C  0.14265677  0.28707322  0.75152751     0.29500
F511        F  0.15757126  0.28604811  0.77952443    -0.19900
H512        H  0.09386974  0.31787116  0.76171183     0.17800
H513        H  0.16467699  0.26260970  0.68317232     0.17800
F514        F  0.10407403  0.29671325  0.66496448    -0.19900
C515        C  0.33631835  0.29822017  0.74791206    -0.21300
C516        C  0.32977364  0.27479541  0.73080836    -0.09400
C517        C  0.35649797  0.27074293  0.70590521     0.29500
C518        C  0.38703103  0.29088300  0.69725670    -0.21300
C519        C  0.39209452  0.31498470  0.71371835    -0.09400
C520        C  0.36726441  0.31807216  0.73963762     0.29500
F521        F  0.37062793  0.34112351  0.75595845    -0.21100
H522        H  0.31552311  0.30182657  0.76693781     0.17800
H523        H  0.40629100  0.28783837  0.67745495     0.17800
F524        F  0.35161803  0.24801254  0.68927377    -0.19900
C525        C  0.39085081  0.43981279  0.74814324    -0.21300
C526        C  0.40293561  0.43714070  0.71867091    -0.09400
C527        C  0.38347153  0.45469857  0.69789340     0.29500
C528        C  0.35055692  0.47348666  0.70631295    -0.21300
C529        C  0.33514076  0.47419757  0.73530632    -0.09400
C530        C  0.35682617  0.45794410  0.75640350     0.29500
F531        F  0.34231535  0.45776621  0.78452049    -0.19900
H532        H  0.40525779  0.42635354  0.76440631     0.17800
H533        H  0.33475624  0.48606086  0.68980500     0.17800
F534        F  0.39494698  0.45283877  0.66923657    -0.19900
C535        C  0.12486948  0.42939414  0.74357711    -0.21300
C536        C  0.10528621  0.43189861  0.71577414    -0.09400
C537        C  0.11572136  0.45492098  0.69860746     0.29500
C538        C  0.14680209  0.47412294  0.70856170    -0.21300
C539        C  0.16892335  0.47026886  0.73526871    -0.09400
C540        C  0.15665873  0.44824785  0.75314775     0.29500
F541        F  0.17738063  0.44413874  0.77918080    -0.19900
H542        H  0.11722970  0.41206791  0.75737640     0.17800
H543        H  0.15524152  0.49129269  0.69477018     0.17800
F544        F  0.09660274  0.45863690  0.67199208    -0.19900
C545        C  0.10395556  0.21071146  0.00464548    -0.21300
C546        C  0.08752954  0.22841121  0.98295250    -0.09400
C547        C  0.10852909  0.22891645  0.95550073     0.29500
C548        C  0.14222510  0.21000156  0.94900652    -0.21300
C549        C  0.15651221  0.19107388  0.97011036    -0.09400
C550        C  0.13843283  0.19225119  0.99837847     0.29500
F551        F  0.15108805  0.17389954  0.01901113    -0.19900
H552        H  0.08793302  0.20990074  0.52587752     0.17800
H553        H  0.15588941  0.20931162  0.92707150     0.17800
F554        F  0.09454137  0.24648623  0.93448546    -0.19900
C555        C  0.41213958  0.20323474  0.49810782    -0.21300
C556        C  0.42275169  0.22435865  0.97863925    -0.09400
C557        C  0.39964094  0.22640607  0.95206809     0.29500
C558        C  0.36857564  0.20638753  0.94427396    -0.21300
C559        C  0.35937061  0.18442039  0.96316633    -0.09400
C560        C  0.38054990  0.18350469  0.99061571     0.29500
F561        F  0.37262601  0.16281286  0.50963560    -0.19900
H562        H  0.42985053  0.20140505  0.51868137     0.17800
H563        H  0.35202423  0.20790639  0.92327391     0.17800
F564        F  0.40778990  0.24731708  0.93344146    -0.19900
C565        C  0.09089400  0.30133450  0.49897904    -0.21300
C566        C  0.08092962  0.27931927  0.51738996    -0.09400
C567        C  0.10432762  0.27631882  0.54377903     0.29500
C568        C  0.13476472  0.29633504  0.55254961    -0.21300
C569        C  0.14324180  0.31914948  0.53472836    -0.09400
C570        C  0.12200267  0.32100770  0.50735937     0.29500
F571        F  0.12926929  0.34259605  0.98940630    -0.19900
H572        H  0.07291192  0.30392468  0.97858465     0.17800
H573        H  0.15142494  0.29413544  0.57344704     0.17800
F574        F  0.09672739  0.25460481  0.56144265    -0.19900
C575        C  0.39809561  0.29341564  0.99299051    -0.21300
C576        C  0.41577288  0.27528525  0.51387594    -0.09400
C577        C  0.39600040  0.27426348  0.54174269     0.29500
C578        C  0.36252590  0.29305166  0.54942490    -0.21300
C579        C  0.34706560  0.31243760  0.52912702    -0.09400
C580        C  0.36387541  0.31177116  0.50046626     0.29500
F581        F  0.35004772  0.33044729  0.98049589    -0.19900
H582        H  0.41297159  0.29462061  0.97144244     0.17800
H583        H  0.34977767  0.29315526  0.57159520     0.17800
F584        F  0.41081911  0.25614767  0.56197644    -0.19900
C585        C  0.50675971  0.27586509  0.57435894    -0.21300
C586        C  0.49725712  0.28777463  0.54713293    -0.09400
C587        C  0.98911398  0.31578288  0.54507463     0.29500
C588        C  0.99024616  0.33173133  0.57019437    -0.21300
C589        C  0.50099454  0.32001591  0.59733678    -0.09400
C590        C  0.50963584  0.29201263  0.59937398     0.29500
F591        F  0.51963589  0.28030333  0.62546309    -0.19900
H592        H  0.51273982  0.25410863  0.57600379     0.17800
H593        H  0.98342929  0.35337948  0.56842562     0.17800
F594        F  0.98071883  0.32762237  0.51882523    -0.19900
C595        C  0.14526325  0.22264911  0.79185247    -0.21300
C596        C  0.16624123  0.22125574  0.76443631    -0.09400
C597        C  0.15164355  0.20170405  0.74402539     0.29500
C598        C  0.11869207  0.18277909  0.75167964    -0.21300
C599        C  0.10046336  0.18287933  0.77989815    -0.09400
C600        C  0.11311478  0.20334712  0.79973875     0.29500
F601        F  0.09513355  0.20423049  0.82697960    -0.19900
H602        H  0.15512126  0.23792945  0.80762674     0.17800
H603        H  0.10921805  0.16711678  0.73615789     0.17800
F604        F  0.17128398  0.19986988  0.71733146    -0.19900
C605        C  0.37902610  0.18424772  0.75642928    -0.21300
C606        C  0.39676128  0.18566704  0.78482629    -0.09400
C607        C  0.38324398  0.20737610  0.80321558     0.29500
C608        C  0.35078430  0.22609064  0.79384130    -0.21300
C609        C  0.33123290  0.22346298  0.76613736    -0.09400
C610        C  0.34640720  0.20280463  0.74722980     0.29500
F611        F  0.32696246  0.19919541  0.72070183    -0.19900
H612        H  0.38858485  0.16784778  0.74180746     0.17800
H613        H  0.33909929  0.24173248  0.80875975     0.17800
F614        F  0.40017405  0.21005012  0.83060023    -0.19900
C615        C  0.37352086  0.06588990  0.75766083    -0.21300
C616        C  0.39574628  0.06458013  0.78456725    -0.09400
C617        C  0.38676169  0.04288219  0.80371971     0.29500
C618        C  0.35507180  0.02309362  0.79622365    -0.21300
C619        C  0.33065940  0.02535759  0.77012075    -0.09400
C620        C  0.34090893  0.04658125  0.75056501     0.29500
F621        F  0.31774968  0.04934967  0.72522213    -0.19900
H622        H  0.38005324  0.08255806  0.74272499     0.17800
H623        H  0.34847732  0.00663838  0.81131411     0.17800
F624        F  0.40795785  0.04119165  0.82989642    -0.19900
C625        C  0.11498426  0.04045326  0.80707414    -0.21300
C626        C  0.10040290  0.06010821  0.78664350    -0.09400
C627        C  0.11585223  0.05812037  0.75761172     0.29500
C628        C  0.14798635  0.03854827  0.75004982    -0.21300
C629        C  0.16530608  0.02058643  0.77111570    -0.09400
C630        C  0.14689535  0.02072754  0.79935959     0.29500
F631        F  0.16216538  0.50313711  0.81998599    -0.19900
H632        H  0.10305724  0.04101948  0.82942720     0.17800
H633        H  0.16188498  0.03875534  0.72817461     0.17800
F634        F  0.10242354  0.07622239  0.73694473    -0.19900
C635        C  0.00308631  0.20872881  0.89662240    -0.21300
C636        C  0.51197338  0.18092602  0.90026796    -0.09400
C637        C  0.52088359  0.17047370  0.92824249     0.29500
C638        C  0.51793612  0.18738715  0.95266788    -0.21300
C639        C  0.50756449  0.21503194  0.94918200    -0.09400
C640        C  0.00151623  0.22585776  0.92099178     0.29500
F641        F  0.99425933  0.25297896  0.91716910    -0.19900
H642        H  0.99667228  0.21699467  0.87505601     0.17800
H643        H  0.52398958  0.17906028  0.97424880     0.17800
F644        F  0.53283625  0.14398387  0.93181361    -0.19900
C645        C  0.36048554  0.05955200  0.99732841    -0.21300
C646        C  0.34760545  0.06230813  0.96802679    -0.09400
C647        C  0.36651961  0.04480785  0.94692774     0.29500
C648        C  0.39930199  0.02577147  0.95492958    -0.21300
C649        C  0.41544428  0.02491182  0.98375872    -0.09400
C650        C  0.39465172  0.04135733  0.00510493     0.29500
F651        F  0.41018580  0.04166550  0.03296830    -0.19900
H652        H  0.34664945  0.07304351  0.01380905     0.17800
H653        H  0.41453224  0.51316136  0.93818407     0.17800
F654        F  0.35467657  0.04697490  0.91836412    -0.19900
C655        C  0.10342439  0.02668628  0.95693112    -0.21300
C656        C  0.08119453  0.02945666  0.98372791    -0.09400
C657        C  0.09315518  0.05079705  0.00268573     0.29500
C658        C  0.12494403  0.07006530  0.99411827    -0.21300
C659        C  0.14481681  0.06854709  0.96633396    -0.09400
C660        C  0.13471143  0.04615833  0.94810943     0.29500
F661        F  0.15446637  0.04330619  0.92154929    -0.19900
H662        H  0.09517391  0.51007600  0.94229873     0.17800
H663        H  0.13236455  0.08691665  0.00865365     0.17800
F664        F  0.07218142  0.05383291  0.02882117    -0.19900
C665        C  0.00407795  0.04391087  0.90047992    -0.21300
C666        C  0.49246057  0.07142500  0.90307109    -0.09400
C667        C  0.48208636  0.08252851  0.93056277     0.29500
C668        C  0.48559860  0.06646705  0.95557651    -0.21300
C669        C  0.49789478  0.03900571  0.95308262    -0.09400
C670        C  0.00612690  0.02759256  0.92537087     0.29500
F671        F  0.01580451  0.00063667  0.92252859    -0.19900
H672        H  0.01186064  0.03520279  0.87926873     0.17800
H673        H  0.47786259  0.07518081  0.97678973     0.17800
F674        F  0.46788811  0.10872779  0.93305651    -0.19900
C675        C  0.39647675  0.47712253  0.54422209    -0.21300
C676        C  0.42049245  0.47374285  0.51815313    -0.09400
C677        C  0.41078894  0.45150726  0.99984015     0.29500
C678        C  0.37931128  0.43210025  0.50834917    -0.21300
C679        C  0.35753669  0.43434633  0.53544983    -0.09400
C680        C  0.36546723  0.45747761  0.55300498     0.29500
F681        F  0.34383487  0.46089094  0.57885302    -0.19900
H682        H  0.40338596  0.49420594  0.55849975     0.17800
H683        H  0.37357670  0.41459261  0.99436462     0.17800
F684        F  0.43377489  0.44777322  0.97454055    -0.19900
C685        C  0.13680344  0.45835843  0.55404837    -0.21300
C686        C  0.15533709  0.44129200  0.53245332    -0.09400
C687        C  0.14191850  0.44467487  0.50326508     0.29500
C688        C  0.10742587  0.46298233  0.99636815    -0.21300
C689        C  0.08639960  0.47850406  0.51836598    -0.09400
C690        C  0.10330320  0.47726204  0.54699747     0.29500
F691        F  0.08555017  0.49311671  0.56841218    -0.19900
H692        H  0.14717243  0.45629360  0.57664639     0.17800
H693        H  0.09498937  0.46368708  0.97413144     0.17800
F694        F  0.15915632  0.42851224  0.98191088    -0.19900
C695        C  0.48950722  0.47341922  0.57593333    -0.21300
C696        C  0.50288409  0.46319068  0.54859425    -0.09400
C697        C  0.01514348  0.43571281  0.54579807     0.29500
C698        C  0.01436133  0.41879545  0.57031027    -0.21300
C699        C  0.49979433  0.42888032  0.59754431    -0.09400
C700        C  0.48711299  0.45628217  0.60018676     0.29500
F701        F  0.47373314  0.46660568  0.62631325    -0.19900
H702        H  0.48046356  0.49472038  0.57831192     0.17800
H703        H  0.02437300  0.39766230  0.56793685     0.17800
F704        F  0.02754725  0.42533247  0.51947628    -0.19900
C705        C  0.50246285  0.98171610  0.02312877     0.02200
C706        C  0.04293223  0.99220853  0.01166073     0.02200
C707        C  0.04095950  0.51292311  0.49041589     0.02200
C708        C  0.99915808  0.52132840  0.47909339     0.02200
C709        C  0.45877916  0.51112723  0.49077099     0.02200
C710        C  0.46068752  0.99039157  0.01191956     0.02200
O711        O  0.02859633  0.60423551  0.37465122    -0.85400
O712        O  0.06726262  0.58781581  0.32331478    -0.82400
C713        C  0.07185568  0.58337030  0.29634808     0.98100
O714        O  0.05398817  0.59937838  0.27787768    -0.82500
O715        O  0.46406328  0.58865154  0.28165978    -0.85100
C716        C  0.42607237  0.58669523  0.29329509     1.02600
O717        O  0.41301169  0.60406064  0.31192472    -0.77900
O718        O  0.46208253  0.59083115  0.36047611    -0.78100
C719        C  0.49472695  0.58919554  0.37769330     1.02600
O720        O  0.03959761  0.65982602  0.35758799    -0.85400
O721        O  0.08579757  0.64408630  0.30875124    -0.82400
C722        C  0.07148149  0.66042241  0.28951059     0.98100
O723        O  0.03333304  0.65734007  0.27841035    -0.82500
O724        O  0.44335643  0.64637011  0.27779081    -0.85100
C725        C  0.42649719  0.66348133  0.29557604     1.02600
O726        O  0.43292425  0.66086216  0.32263649    -0.77900
O727        O  0.47410012  0.64707828  0.37414543    -0.78000
C728        C  0.50808919  0.66223601  0.37560745     1.02500
Cr729      Cr  0.05146193  0.62395105  0.33945204     1.93700
Cr730      Cr  0.49879977  0.62302196  0.28182568     1.93200
Cr731      Cr  0.44931321  0.62565927  0.34059637     1.39100
O732        O  0.49987542  0.62421121  0.32057424    -1.23100
C733        C  0.00465804  0.73311862  0.47487816     0.02200
C734        C  0.04425651  0.74268581  0.48818935     0.02200
C735        C  0.04128912  0.76247685  0.01021996     0.02200
C736        C  0.49900633  0.77069383  0.02076298     0.02200
C737        C  0.45921630  0.76131041  0.00753129     0.02200
C738        C  0.46218537  0.74150077  0.48530325     0.02200
O739        O  0.03019910  0.89334480  0.12533623    -0.85400
O740        O  0.07058199  0.90686865  0.17744027    -0.82400
C741        C  0.07556962  0.91002291  0.20463807     0.98100
O742        O  0.05678961  0.89386211  0.22247472    -0.82500
O743        O  0.46799748  0.90893274  0.22107009    -0.85100
C744        C  0.43089749  0.91392070  0.20906386     1.02600
O745        O  0.41604386  0.89856905  0.18914640    -0.77900
O746        O  0.46685483  0.91070071  0.14065457    -0.78100
C747        C  0.49907845  0.91053968  0.12283235     1.02600
O748        O  0.03326252  0.83738188  0.14076345    -0.85400
O749        O  0.08330699  0.84989600  0.18932082    -0.82400
C750        C  0.06789313  0.83301490  0.20744621     0.98100
O751        O  0.03022687  0.83696989  0.21911908    -0.82500
O752        O  0.44157803  0.85226031  0.22188856    -0.85100
C753        C  0.42207258  0.83707080  0.20346085     1.02600
O754        O  0.42693199  0.84114044  0.17641870    -0.77900
O755        O  0.46958776  0.85456283  0.12554798    -0.78000
C756        C  0.50099363  0.83753630  0.12304885     1.02500
Cr757      Cr  0.05045031  0.87205471  0.15993269     1.93700
Cr758      Cr  0.49920162  0.87304453  0.21818325     1.93200
Cr759      Cr  0.44861629  0.87604764  0.15968572     1.39100
O760        O  0.49932503  0.87377516  0.17936489    -1.23100
C761        C  0.24874717  0.51649030  0.27625511     0.02200
C762        C  0.20820346  0.50629913  0.26456329     0.02200
C763        C  0.20968959  0.98614822  0.24268488     0.02200
C764        C  0.25133131  0.97777517  0.23105873     0.02200
C765        C  0.29191443  0.98779868  0.24284152     0.02200
C766        C  0.29047055  0.50822698  0.26452173     0.02200
O767        O  0.21999419  0.91290173  0.10913658    -0.85400
O768        O  0.16828799  0.90203564  0.06083099    -0.82400
C769        C  0.18325041  0.91776460  0.04133675     0.98100
O770        O  0.22038113  0.91290701  0.02928544    -0.82500
O771        O  0.30872026  0.89695053  0.02708344    -0.85100
C772        C  0.32807640  0.91213482  0.04559348     1.02600
O773        O  0.32369420  0.90788640  0.07263705    -0.77900
O774        O  0.28243119  0.89422201  0.12418901    -0.78100
C775        C  0.25183753  0.91178436  0.12713579     1.02600
O776        O  0.22095534  0.85638238  0.12357911    -0.85400
O777        O  0.17816689  0.84460378  0.07225758    -0.82400
C778        C  0.17321763  0.84103737  0.04514942     0.98100
O779        O  0.19280409  0.85639798  0.02693650    -0.82500
O780        O  0.28131071  0.84036697  0.02794432    -0.85100
C781        C  0.31896229  0.83549482  0.03925529     1.02600
O782        O  0.33422487  0.85084424  0.05902906    -0.77900
O783        O  0.28331253  0.83831417  0.10734911    -0.78000
C784        C  0.25144924  0.83862588  0.12540753     1.02500
Cr785      Cr  0.20066382  0.87877307  0.08967787     1.93700
Cr786      Cr  0.25081446  0.87660951  0.03083956     1.93200
Cr787      Cr  0.30209683  0.87308761  0.08908115     1.39100
O788        O  0.25116455  0.87614528  0.06971733    -1.23100
C789        C  0.24843022  0.72920205  0.27054520     0.02200
C790        C  0.28939168  0.73831638  0.25871901     0.02200
C791        C  0.28915269  0.75817606  0.23656100     0.02200
C792        C  0.24796359  0.76701496  0.22467255     0.02200
C793        C  0.20685471  0.75747343  0.23620157     0.02200
C794        C  0.20732706  0.73734752  0.25811906     0.02200
O795        O  0.21783864  0.60754828  0.37697405    -0.85400
O796        O  0.17795542  0.59495202  0.42891251    -0.82400
C797        C  0.17424077  0.59079347  0.45599749     0.98100
O798        O  0.19418240  0.60603897  0.47422800    -0.82500
O799        O  0.28254961  0.59048954  0.47121638    -0.85100
C800        C  0.31945568  0.58561186  0.45892458     1.02600
O801        O  0.33396725  0.60122698  0.43920563    -0.77900
O802        O  0.28053621  0.58921254  0.39201511    -0.78100
C803        C  0.24786109  0.58957377  0.37459672     1.02600
O804        O  0.21748093  0.66394364  0.39240247    -0.85400
O805        O  0.16798738  0.65194020  0.44162867    -0.82400
C806        C  0.18383957  0.66759678  0.46085549     0.98100
O807        O  0.22146446  0.66280517  0.47215820    -0.82500
O808        O  0.30991358  0.64723341  0.47238046    -0.85100
C809        C  0.32895488  0.66233967  0.45362924     1.02600
O810        O  0.32323478  0.65830369  0.42665809    -0.77900
O811        O  0.27934097  0.64534561  0.37614183    -0.78000
C812        C  0.24879474  0.66299877  0.37394741     1.02500
Cr813      Cr  0.19920696  0.62942428  0.41168855     1.93700
Cr814      Cr  0.25191592  0.62665297  0.46951780     1.93200
Cr815      Cr  0.30052318  0.62376594  0.41027282     1.39100
O816        O  0.25055457  0.62667694  0.43065829    -1.23100
C817        C  0.25745490  0.68440293  0.29523310    -0.21300
C818        C  0.24845611  0.71228537  0.29716750    -0.09400
C819        C  0.24038663  0.72435477  0.32460050     0.29500
C820        C  0.23897772  0.70822075  0.34975645    -0.21300
C821        C  0.24829803  0.68027344  0.34782426    -0.09400
C822        C  0.25857166  0.66860523  0.32045821     0.29500
F823        F  0.26962638  0.64185343  0.31807315    -0.19900
H824        H  0.26440011  0.67504899  0.27424512     0.17800
H825        H  0.23199453  0.71758742  0.37073279     0.17800
F826        F  0.23381937  0.75170199  0.32688461    -0.19900
C827        C  0.26150827  0.77537725  0.17182671    -0.21300
C828        C  0.24861404  0.78559002  0.19927211    -0.09400
C829        C  0.23706578  0.81314874  0.20229131     0.29500
C830        C  0.23745581  0.83012237  0.17788197    -0.21300
C831        C  0.25097887  0.82004070  0.15046249    -0.09400
C832        C  0.26353669  0.79260287  0.14759011     0.29500
F833        F  0.27642030  0.78236134  0.12130587    -0.19900
H834        H  0.27008821  0.75401633  0.16929197     0.17800
H835        H  0.22794919  0.85133919  0.18048588     0.17800
F836        F  0.22538909  0.82350522  0.22875642    -0.19900
C837        C  0.24070069  0.97233981  0.17754762    -0.21300
C838        C  0.25180782  0.96050507  0.20455510    -0.09400
C839        C  0.26332582  0.93282778  0.20590372     0.29500
C840        C  0.26413215  0.91729324  0.18033699    -0.21300
C841        C  0.25187617  0.92895778  0.15339561    -0.09400
C842        C  0.23964221  0.95654359  0.15217261     0.29500
F843        F  0.22779560  0.96829664  0.12644327    -0.19900
H844        H  0.23238746  0.99383511  0.17628630     0.17800
H845        H  0.27344259  0.89595116  0.18164563     0.17800
F846        F  0.27388106  0.92098608  0.23182109    -0.19900
C847        C  0.23143742  0.56187465  0.29848289    -0.21300
C848        C  0.24781784  0.53527260  0.30156877    -0.09400
C849        C  0.26165917  0.52601362  0.32920570     0.29500
C850        C  0.26242910  0.54388252  0.35294340    -0.21300
C851        C  0.24603079  0.57050551  0.34988336    -0.09400
C852        C  0.22860070  0.57899067  0.32273271     0.29500
F853        F  0.20916199  0.60384291  0.31947974    -0.19900
H854        H  0.21979098  0.56909161  0.27745323     0.17800
H855        H  0.27468663  0.53674826  0.37387070     0.17800
F856        F  0.27398120  0.49960652  0.33320719    -0.19900
C857        C  0.10827906  0.80533408  0.24458178    -0.21300
C858        C  0.09587485  0.80940119  0.21541338    -0.09400
C859        C  0.11559241  0.79322709  0.19342549     0.29500
C860        C  0.14882898  0.77421276  0.20049474    -0.21300
C861        C  0.16426105  0.77197716  0.22936527    -0.09400
C862        C  0.14265951  0.78707821  0.25152411     0.29500
F863        F  0.15757780  0.78605895  0.27952038    -0.19900
H864        H  0.09387128  0.81787620  0.26170475     0.17800
H865        H  0.16467496  0.76260396  0.18317254     0.17800
F866        F  0.10406733  0.79670296  0.16496087    -0.19900
C867        C  0.33632446  0.79821425  0.24790915    -0.21300
C868        C  0.32977491  0.77479153  0.23080312    -0.09400
C869        C  0.35649280  0.77074229  0.20589616     0.29500
C870        C  0.38702285  0.79088388  0.19724653    -0.21300
C871        C  0.39209047  0.81498368  0.21371090    -0.09400
C872        C  0.36726773  0.81806750  0.23963366     0.29500
F873        F  0.37063557  0.84111674  0.25595748    -0.21100
H874        H  0.31553432  0.80181845  0.26693782     0.17800
H875        H  0.40627762  0.78784176  0.17744218     0.17800
F876        F  0.35160958  0.74801365  0.18926239    -0.19900
C877        C  0.39074220  0.93973828  0.24815061    -0.21300
C878        C  0.40292705  0.93712935  0.21868985    -0.09400
C879        C  0.38354399  0.95473616  0.19792754     0.29500
C880        C  0.35061918  0.97351871  0.20634704    -0.21300
C881        C  0.33512983  0.97418437  0.23532436    -0.09400
C882        C  0.35671446  0.95786748  0.25640863     0.29500
F883        F  0.34209266  0.95762371  0.28450027    -0.19900
H884        H  0.40507351  0.92623316  0.26439870     0.17800
H885        H  0.33487165  0.98612810  0.18984781     0.17800
F886        F  0.39511007  0.95293056  0.16928262    -0.19900
C887        C  0.12485728  0.92939778  0.24357412    -0.21300
C888        C  0.10528817  0.93189451  0.21576594    -0.09400
C889        C  0.11573835  0.95491000  0.19859243     0.29500
C890        C  0.14681967  0.97411196  0.20854542    -0.21300
C891        C  0.16892518  0.97026588  0.23525925    -0.09400
C892        C  0.15664618  0.94825217  0.25314437     0.29500
F893        F  0.17735326  0.94415070  0.27918383    -0.19900
H894        H  0.11720602  0.91207712  0.25737878     0.17800
H895        H  0.15527096  0.99127585  0.19474850     0.17800
F896        F  0.09663404  0.95861918  0.17197158    -0.19900
C897        C  0.10395276  0.71072365  0.50463370    -0.21300
C898        C  0.08752463  0.72841928  0.48293747    -0.09400
C899        C  0.10852171  0.72891878  0.45548461     0.29500
C900        C  0.14221632  0.71000196  0.44899327    -0.21300
C901        C  0.15650542  0.69107850  0.47010099    -0.09400
C902        C  0.13842925  0.69226202  0.49836961     0.29500
F903        F  0.15108636  0.67391471  0.51900617    -0.19900
H904        H  0.08793246  0.70991518  0.02586797     0.17800
H905        H  0.15587810  0.70930730  0.42705777     0.17800
F906        F  0.09453272  0.74648445  0.43446576    -0.19900
C907        C  0.41213955  0.70323519  0.99809625    -0.21300
C908        C  0.42274412  0.72436153  0.47862832    -0.09400
C909        C  0.39963295  0.72640598  0.45205689     0.29500
C910        C  0.36856921  0.70638576  0.44426453    -0.21300
C911        C  0.35936431  0.68442048  0.46315938    -0.09400
C912        C  0.38054210  0.68350856  0.49060944     0.29500
F913        F  0.37263077  0.66281186  0.00962577    -0.19900
H914        H  0.42985025  0.70140715  0.01867002     0.17800
H915        H  0.35201791  0.70790228  0.42326419     0.17800
F916        F  0.40777833  0.74731639  0.43342887    -0.19900
C917        C  0.09088704  0.80134175  0.99897379    -0.21300
C918        C  0.08092128  0.77932565  0.01738320    -0.09400
C919        C  0.10431706  0.77632434  0.04377307     0.29500
C920        C  0.13475429  0.79633993  0.05254534    -0.21300
C921        C  0.14323361  0.81915483  0.03472522    -0.09400
C922        C  0.12199561  0.82101443  0.00735590     0.29500
F923        F  0.12926511  0.84260280  0.48939627    -0.19900
H924        H  0.07290646  0.80393230  0.47857282     0.17800
H925        H  0.15141349  0.79413924  0.07344301     0.17800
F926        F  0.09671548  0.75460969  0.06143551    -0.19900
C927        C  0.39809278  0.79342137  0.49298367    -0.21300
C928        C  0.41576556  0.77528470  0.01386803    -0.09400
C929        C  0.39599009  0.77425952  0.04173366     0.29500
C930        C  0.36251518  0.79304698  0.04941678    -0.21300
C931        C  0.34705881  0.81243584  0.02912089    -0.09400
C932        C  0.36387282  0.81177356  0.00046121     0.29500
F933        F  0.35004991  0.83045664  0.48049394    -0.19900
H934        H  0.41297343  0.79463066  0.47143723     0.17800
H935        H  0.34976428  0.79314808  0.07158641     0.17800
F936        F  0.41080653  0.75614130  0.06196566    -0.19900
C937        C  0.50674568  0.77586444  0.07435342    -0.21300
C938        C  0.49724663  0.78777486  0.04712728    -0.09400
C939        C  0.98910481  0.81578338  0.04506810     0.29500
C940        C  0.99023613  0.83173115  0.07018839    -0.21300
C941        C  0.50098529  0.82001541  0.09733207    -0.09400
C942        C  0.50962242  0.79201155  0.09936895     0.29500
F943        F  0.51961994  0.78030148  0.12545809    -0.19900
H944        H  0.51272362  0.75410766  0.07599792     0.17800
H945        H  0.98342167  0.85337959  0.06841999     0.17800
F946        F  0.98071307  0.82762387  0.01881877    -0.19900
C947        C  0.14523107  0.72266328  0.29183680    -0.21300
C948        C  0.16623940  0.72125680  0.26443129    -0.09400
C949        C  0.15166878  0.70169263  0.24402599     0.29500
C950        C  0.11871655  0.68276736  0.25167755    -0.21300
C951        C  0.10045813  0.68288095  0.27988768    -0.09400
C952        C  0.11308051  0.70336167  0.29972081     0.29500
F953        F  0.09507023  0.70425748  0.32695304    -0.19900
H954        H  0.15506467  0.73795421  0.30760554     0.17800
H955        H  0.10926425  0.66709518  0.23616141     0.17800
F956        F  0.17133485  0.69984824  0.21734095    -0.19900
C957        C  0.37902831  0.68424714  0.25642553    -0.21300
C958        C  0.39675497  0.68566131  0.28482519    -0.09400
C959        C  0.38323334  0.70736775  0.30321662     0.29500
C960        C  0.35077663  0.72608410  0.29384193    -0.21300
C961        C  0.33123234  0.72346108  0.26613525    -0.09400
C962        C  0.34641274  0.70280610  0.24722529     0.29500
F963        F  0.32697468  0.69920065  0.22069462    -0.19900
H964        H  0.38859116  0.66784958  0.24180168     0.17800
H965        H  0.33908685  0.74172310  0.30876231     0.17800
F966        F  0.40015629  0.71003749  0.33060361    -0.19900
C967        C  0.37374153  0.56576291  0.25760553    -0.21300
C968        C  0.39577512  0.56455599  0.28458553    -0.09400
C969        C  0.38661235  0.54294916  0.30381912     0.29500
C970        C  0.35493328  0.52315389  0.29632887    -0.21300
C971        C  0.33068141  0.52533207  0.27015373    -0.09400
C972        C  0.34112042  0.54645653  0.25051717     0.29500
F973        F  0.31813391  0.54913681  0.22509631    -0.19900
H974        H  0.38041746  0.58235768  0.24260344     0.17800
H975        H  0.34822483  0.50676023  0.31147353     0.17800
F976        F  0.40763482  0.54135005  0.33006240    -0.19900
C977        C  0.11497630  0.54044998  0.30706759    -0.21300
C978        C  0.10041519  0.56011233  0.28663909    -0.09400
C979        C  0.11588747  0.55813309  0.25761206     0.29500
C980        C  0.14802182  0.53856009  0.25005364    -0.21300
C981        C  0.16531708  0.52058796  0.27111793    -0.09400
C982        C  0.14688631  0.52072284  0.29935609     0.29500
F983        F  0.16222976  0.00315736  0.31999677    -0.19900
H984        H  0.10303108  0.54100988  0.32941671     0.17800
H985        H  0.16193700  0.53877221  0.22818297     0.17800
F986        F  0.10248038  0.57624372  0.23694777    -0.19900
C987        C  0.00308150  0.70873316  0.39660738    -0.21300
C988        C  0.51197556  0.68093316  0.40025543    -0.09400
C989        C  0.52089517  0.67048346  0.42822959     0.29500
C990        C  0.51794068  0.68739671  0.45265442    -0.21300
C991        C  0.50755643  0.71503964  0.44916803    -0.09400
C992        C  0.00150859  0.72586358  0.42097552     0.29500
F993        F  0.99424734  0.75298413  0.41715086    -0.19900
H994        H  0.99666462  0.71699693  0.37504040     0.17800
H995        H  0.52400102  0.67907152  0.47423523     0.17800
F996        F  0.53286436  0.64399642  0.43180077    -0.19900
C997        C  0.36047970  0.55955494  0.49733392    -0.21300
C998        C  0.34759701  0.56230834  0.46803251    -0.09400
C999        C  0.36651391  0.54480850  0.44693395     0.29500
C1000       C  0.39930183  0.52577577  0.45493581    -0.21300
C1001       C  0.41544465  0.52491818  0.48376475    -0.09400
C1002       C  0.39464986  0.54136309  0.50511059     0.29500
F1003       F  0.41018445  0.54167299  0.53297383    -0.19900
H1004       H  0.34664223  0.57304643  0.51381404     0.17800
H1005       H  0.41452422  0.01315539  0.43818360     0.17800
F1006       F  0.35466757  0.54697242  0.41837061    -0.19900
C1007       C  0.10342256  0.52668441  0.45693729    -0.21300
C1008       C  0.08119488  0.52945473  0.48373484    -0.09400
C1009       C  0.09315972  0.55079364  0.50269342     0.29500
C1010       C  0.12494686  0.57006239  0.49412464    -0.21300
C1011       C  0.14481454  0.56854559  0.46633865    -0.09400
C1012       C  0.13470878  0.54615653  0.44811464     0.29500
F1013       F  0.15446203  0.54330437  0.42155397    -0.19900
H1014       H  0.09515699  0.01008367  0.44228473     0.17800
H1015       H  0.13236938  0.58691317  0.50866022     0.17800
F1016       F  0.07219096  0.55382797  0.52883080    -0.19900
C1017       C  0.00409128  0.54391120  0.40048418    -0.21300
C1018       C  0.49248974  0.57142921  0.40307620    -0.09400
C1019       C  0.48211806  0.58253432  0.43056764     0.29500
C1020       C  0.48561730  0.56647181  0.45558159    -0.21300
C1021       C  0.49789963  0.53900819  0.45308857    -0.09400
C1022       C  0.00612994  0.52759264  0.42537559     0.29500
F1023       F  0.01579827  0.50063542  0.42253424    -0.19900
H1024       H  0.01187167  0.53520145  0.37927340     0.17800
H1025       H  0.47788329  0.57518704  0.47679439     0.17800
F1026       F  0.46793109  0.60873580  0.43306082    -0.19900
C1027       C  0.39648540  0.97711676  0.04421713    -0.21300
C1028       C  0.42049768  0.97373671  0.01814688    -0.09400
C1029       C  0.41079773  0.95149762  0.49983982     0.29500
C1030       C  0.37931231  0.93209548  0.00834452    -0.21300
C1031       C  0.35754158  0.93434171  0.03544654    -0.09400
C1032       C  0.36547623  0.95747239  0.05300170     0.29500
F1033       F  0.34384810  0.96088582  0.07885123    -0.19900
H1034       H  0.40339686  0.99420002  0.05849438     0.17800
H1035       H  0.37358529  0.91458290  0.49436600     0.17800
F1036       F  0.43378293  0.94776287  0.47454004    -0.19900
C1037       C  0.13680690  0.95836126  0.05404542    -0.21300
C1038       C  0.15534476  0.94129549  0.03245138    -0.09400
C1039       C  0.14193238  0.94467962  0.00326201     0.29500
C1040       C  0.10743838  0.96298758  0.49636009    -0.21300
C1041       C  0.08640756  0.97850632  0.01835996    -0.09400
C1042       C  0.10330741  0.97726462  0.04699241     0.29500
F1043       F  0.08555061  0.99311892  0.06840608    -0.19900
H1044       H  0.14717188  0.95629607  0.07664420     0.17800
H1045       H  0.09500338  0.96369210  0.47412298     0.17800
F1046       F  0.15917389  0.92851969  0.48190414    -0.19900
C1047       C  0.48951525  0.97341675  0.07592365    -0.21300
C1048       C  0.50289282  0.96318684  0.04858537    -0.09400
C1049       C  0.01515477  0.93571027  0.04579224     0.29500
C1050       C  0.01437080  0.91879361  0.07030502    -0.21300
C1051       C  0.49980207  0.92887919  0.09753762    -0.09400
C1052       C  0.48712050  0.95628112  0.10017805     0.29500
F1053       F  0.47373959  0.96660623  0.12630349    -0.19900
H1054       H  0.48047096  0.99471787  0.07830079     0.17800
H1055       H  0.02438251  0.89766035  0.06793249     0.17800
F1056       F  0.02756164  0.92532941  0.01947129    -0.19900
C1057       C  0.50246901  0.98170535  0.52311622     0.02200
C1058       C  0.04293373  0.99220162  0.51164832     0.02200
C1059       C  0.04096148  0.51291450  0.99040226     0.02200
C1060       C  0.99915903  0.52131752  0.97907931     0.02200
C1061       C  0.45878029  0.51111262  0.99075557     0.02200
C1062       C  0.46069083  0.99037746  0.51190911     0.02200
O1063       O  0.02856536  0.60424002  0.87465474    -0.85400
O1064       O  0.06724115  0.58782037  0.82332240    -0.82400
C1065       C  0.07183539  0.58337372  0.79635597     0.98100
O1066       O  0.05397031  0.59938188  0.77788490    -0.82500
O1067       O  0.46404792  0.58865754  0.78167143    -0.85100
C1068       C  0.42604470  0.58671375  0.79329130     1.02600
O1069       O  0.41298240  0.60408418  0.81191506    -0.77900
O1070       O  0.46204400  0.59084091  0.86047398    -0.78100
C1071       C  0.49468778  0.58920040  0.87769194     1.02600
O1072       O  0.03957660  0.65983148  0.85759503    -0.85400
O1073       O  0.08578125  0.64409100  0.80876163    -0.82400
C1074       C  0.07147046  0.66042680  0.78951903     0.98100
O1075       O  0.03332485  0.65734411  0.77841412    -0.82500
O1076       O  0.44334611  0.64637952  0.77779353    -0.85100
C1077       C  0.42649312  0.66349518  0.79557672     1.02600
O1078       O  0.43292043  0.66087879  0.82263740    -0.77900
O1079       O  0.47407540  0.64708493  0.87415128    -0.78000
C1080       C  0.50806631  0.66224105  0.87561616     1.02500
Cr1081     Cr  0.05143992  0.62395617  0.83945921     1.93700
Cr1082     Cr  0.49878606  0.62302783  0.78183159     1.93200
Cr1083     Cr  0.44928902  0.62567261  0.84059613     1.39100
O1084       O  0.49985581  0.62421979  0.82057913    -1.23100
C1085       C  0.00466825  0.73311411  0.97489563     0.02200
C1086       C  0.04426826  0.74267953  0.98820649     0.02200
C1087       C  0.04127435  0.76248222  0.51020311     0.02200
C1088       C  0.49899038  0.77069624  0.52074603     0.02200
C1089       C  0.45920155  0.76131186  0.50751317     0.02200
C1090       C  0.46219742  0.74149746  0.98532356     0.02200
O1091       O  0.03021181  0.89333532  0.62532670    -0.85400
O1092       O  0.07060055  0.90685981  0.67743002    -0.82400
C1093       C  0.07558812  0.91001557  0.70462776     0.98100
O1094       O  0.05680466  0.89385708  0.72246501    -0.82500
O1095       O  0.46801727  0.90894074  0.72105276    -0.85100
C1096       C  0.43091749  0.91392846  0.70904571     1.02600
O1097       O  0.41605849  0.89856916  0.68913660    -0.77900
O1098       O  0.46686830  0.91069250  0.64064176    -0.78100
C1099       C  0.49909291  0.91052951  0.62282021     1.02600
O1100       O  0.03326656  0.83737265  0.64075570    -0.85400
O1101       O  0.08330916  0.84988515  0.68931474    -0.82400
C1102       C  0.06789054  0.83300815  0.70744308     0.98100
O1103       O  0.03022610  0.83696871  0.71911655    -0.82500
O1104       O  0.44157945  0.85227013  0.72188424    -0.85100
C1105       C  0.42207505  0.83707644  0.70345990     1.02600
O1106       O  0.42694023  0.84113880  0.67641699    -0.77900
O1107       O  0.46959248  0.85455444  0.62554275    -0.78000
C1108       C  0.50099696  0.83752745  0.62304184     1.02500
Cr1109     Cr  0.05045999  0.87204555  0.65992444     1.93700
Cr1110     Cr  0.49921034  0.87304748  0.71817509     1.93200
Cr1111     Cr  0.44862654  0.87604301  0.65967823     1.39100
O1112       O  0.49933559  0.87377112  0.67935650    -1.23100
C1113       C  0.24873946  0.51651124  0.77623985     0.02200
C1114       C  0.20819154  0.50631316  0.76455975     0.02200
C1115       C  0.20970024  0.98614493  0.74268371     0.02200
C1116       C  0.25134163  0.97777914  0.73105112     0.02200
C1117       C  0.29192847  0.98779751  0.74283944     0.02200
C1118       C  0.29045645  0.50824262  0.76450601     0.02200
O1119       O  0.21997508  0.91289914  0.60913093    -0.85400
O1120       O  0.16827867  0.90203296  0.56082022    -0.82400
C1121       C  0.18324846  0.91776290  0.54132933     0.98100
O1122       O  0.22038199  0.91290507  0.52928223    -0.82500
O1123       O  0.30871724  0.89694107  0.52708300    -0.85100
C1124       C  0.32807592  0.91212332  0.54559361     1.02600
O1125       O  0.32368838  0.90787596  0.57263704    -0.77900
O1126       O  0.28241031  0.89421835  0.62418583    -0.78100
C1127       C  0.25181751  0.91178176  0.62713100     1.02600
O1128       O  0.22092787  0.85638085  0.62357587    -0.85400
O1129       O  0.17815151  0.84460145  0.57224932    -0.82400
C1130       C  0.17320425  0.84103718  0.54514068     0.98100
O1131       O  0.19279235  0.85639893  0.52692973    -0.82500
O1132       O  0.28129533  0.84036124  0.52794152    -0.85100
C1133       C  0.31894441  0.83548607  0.53925445     1.02600
O1134       O  0.33420538  0.85083164  0.55903238    -0.77900
O1135       O  0.28328395  0.83830866  0.60735002    -0.78000
C1136       C  0.25141911  0.83862300  0.62540716     1.02500
Cr1137     Cr  0.20064617  0.87877055  0.58967111     1.93700
Cr1138     Cr  0.25080641  0.87660548  0.53083643     1.93200
Cr1139     Cr  0.30207862  0.87307976  0.58908139     1.39100
O1140       O  0.25115040  0.87614069  0.56971427    -1.23100
C1141       C  0.24843177  0.72920956  0.77055477     0.02200
C1142       C  0.28938892  0.73833069  0.75873008     0.02200
C1143       C  0.28914424  0.75819040  0.73657230     0.02200
C1144       C  0.24795293  0.76702189  0.72468146     0.02200
C1145       C  0.20684759  0.75747237  0.73620798     0.02200
C1146       C  0.20732623  0.73734730  0.75812652     0.02200
O1147       O  0.21787000  0.60755247  0.87697694    -0.85400
O1148       O  0.17798086  0.59494428  0.92890917    -0.82400
C1149       C  0.17426009  0.59078263  0.95599319     0.98100
O1150       O  0.19419811  0.60602674  0.97422689    -0.82500
O1151       O  0.28256756  0.59048556  0.97121308    -0.85100
C1152       C  0.31947638  0.58561352  0.95892272     1.02600
O1153       O  0.33399089  0.60123612  0.93921112    -0.77900
O1154       O  0.28057688  0.58922550  0.89201284    -0.78100
C1155       C  0.24790252  0.58958479  0.87459401     1.02600
O1156       O  0.21749041  0.66394612  0.89241205    -0.85400
O1157       O  0.16799729  0.65193059  0.94163507    -0.82400
C1158       C  0.18384417  0.66758565  0.96086539     0.98100
O1159       O  0.22146880  0.66279542  0.97216911    -0.82500
O1160       O  0.30992210  0.64723158  0.97239283    -0.85100
C1161       C  0.32895921  0.66234448  0.95364576     1.02600
O1162       O  0.32323942  0.65831459  0.92667377    -0.77900
O1163       O  0.27935976  0.64535994  0.87615028    -0.78000
C1164       C  0.24880498  0.66300787  0.87395728     1.02500
Cr1165     Cr  0.19922578  0.62942172  0.91169236     1.93700
Cr1166     Cr  0.25192834  0.62664655  0.96952276     1.93200
Cr1167     Cr  0.30054498  0.62377728  0.91027983     1.39100
O1168       O  0.25057201  0.62667748  0.93066326    -1.23100
C1169       C  0.25738676  0.68440257  0.79523691    -0.21300
C1170       C  0.24846599  0.71229383  0.79717762    -0.09400
C1171       C  0.24046729  0.72437087  0.82461552     0.29500
C1172       C  0.23905750  0.70823846  0.84977298    -0.21300
C1173       C  0.24829739  0.68028181  0.84783407    -0.09400
C1174       C  0.25849233  0.66860276  0.82046126     0.29500
F1175       F  0.26945844  0.64183815  0.81807006    -0.19900
H1176       H  0.26427449  0.67504227  0.77424408     0.17800
H1177       H  0.23213457  0.71761182  0.87075433     0.17800
F1178       F  0.23396479  0.75172352  0.82690223    -0.19900
C1179       C  0.26149043  0.77537970  0.67183417    -0.21300
C1180       C  0.24859696  0.78559452  0.69927879    -0.09400
C1181       C  0.23703927  0.81315221  0.70229436     0.29500
C1182       C  0.23742247  0.83012317  0.67788257    -0.21300
C1183       C  0.25094589  0.82003958  0.65046390    -0.09400
C1184       C  0.26350905  0.79260231  0.64759473     0.29500
F1185       F  0.27638988  0.78235842  0.62131096    -0.19900
H1186       H  0.27007679  0.75401950  0.66930214     0.17800
H1187       H  0.22791218  0.85133965  0.68048412     0.17800
F1188       F  0.22536101  0.82351035  0.72875843    -0.19900
C1189       C  0.24067803  0.97233914  0.67754160    -0.21300
C1190       C  0.25180780  0.96050826  0.70454737    -0.09400
C1191       C  0.26333719  0.93283272  0.70589506     0.29500
C1192       C  0.26413381  0.91729639  0.68032951    -0.21300
C1193       C  0.25185783  0.92895701  0.65338996    -0.09400
C1194       C  0.23961021  0.95654080  0.65216806     0.29500
F1195       F  0.22774239  0.96829031  0.62644100    -0.19900
H1196       H  0.23235713  0.99383335  0.67628042     0.17800
H1197       H  0.27345492  0.89595598  0.68163776     0.17800
F1198       F  0.27392078  0.92099584  0.73181006    -0.19900
C1199       C  0.23136462  0.56187827  0.79849237    -0.21300
C1200       C  0.24783621  0.53529455  0.80155386    -0.09400
C1201       C  0.26182392  0.52605616  0.82916728     0.29500
C1202       C  0.26259904  0.54392245  0.85290662    -0.21300
C1203       C  0.24608080  0.57052108  0.84987556    -0.09400
C1204       C  0.22854219  0.57898756  0.82274764     0.29500
F1205       F  0.20900642  0.60381478  0.81952098    -0.19900
H1206       H  0.21963412  0.56908522  0.77747911     0.17800
H1207       H  0.27495354  0.53680222  0.87381495     0.17800
F1208       F  0.27426998  0.49966815  0.83314809    -0.19900
C1209       C  0.10826762  0.80532793  0.74458278    -0.21300
C1210       C  0.09586571  0.80939281  0.71541358    -0.09400
C1211       C  0.11558117  0.79321514  0.69342791     0.29500
C1212       C  0.14881755  0.77420169  0.70049966    -0.21300
C1213       C  0.16424971  0.77197006  0.72937044    -0.09400
C1214       C  0.14264632  0.78707184  0.75152770     0.29500
F1215       F  0.15756191  0.78605323  0.77952469    -0.19900
H1216       H  0.09386013  0.81787208  0.76170410     0.17800
H1217       H  0.16466465  0.76259144  0.68317901     0.17800
F1218       F  0.10405576  0.79668753  0.66496286    -0.19900
C1219       C  0.33630881  0.79823554  0.74791023    -0.21300
C1220       C  0.32976307  0.77480791  0.73081106    -0.09400
C1221       C  0.35648642  0.77075155  0.70590817     0.29500
C1222       C  0.38702094  0.79088967  0.69725602    -0.21300
C1223       C  0.39208726  0.81499353  0.71371380    -0.09400
C1224       C  0.36725682  0.81808552  0.73963240     0.29500
F1225       F  0.37062311  0.84113893  0.75594964    -0.21100
H1226       H  0.31551436  0.80184511  0.76693564     0.17800
H1227       H  0.40628077  0.78784148  0.67745488     0.17800
F1228       F  0.35160528  0.74801848  0.68928106    -0.19900
C1229       C  0.39087279  0.93981731  0.74813292    -0.21300
C1230       C  0.40295350  0.93714590  0.71865960    -0.09400
C1231       C  0.38348518  0.95470408  0.69788412     0.29500
C1232       C  0.35056836  0.97348997  0.70630615    -0.21300
C1233       C  0.33515456  0.97419897  0.73530026    -0.09400
C1234       C  0.35684715  0.95794723  0.75639592     0.29500
F1235       F  0.34234354  0.95777016  0.78451454    -0.19900
H1236       H  0.40528412  0.92635861  0.76439489     0.17800
H1237       H  0.33476459  0.98606414  0.68979945     0.17800
F1238       F  0.39495883  0.95284667  0.66922681    -0.19900
C1239       C  0.12487964  0.92938741  0.74356353    -0.21300
C1240       C  0.10530788  0.93188675  0.71575637    -0.09400
C1241       C  0.11575082  0.95490635  0.69858737     0.29500
C1242       C  0.14682473  0.97411131  0.70854486    -0.21300
C1243       C  0.16893531  0.97026223  0.73525669    -0.09400
C1244       C  0.15666398  0.94824339  0.75313694     0.29500
F1245       F  0.17737410  0.94413883  0.77917481    -0.19900
H1246       H  0.11723367  0.91206375  0.75736506     0.17800
H1247       H  0.15526755  0.99127974  0.69475228     0.17800
F1248       F  0.09664565  0.95861722  0.67196706    -0.19900
C1249       C  0.10395932  0.71071214  0.00464796    -0.21300
C1250       C  0.08753390  0.72841059  0.98295343    -0.09400
C1251       C  0.10852933  0.72890989  0.95550003     0.29500
C1252       C  0.14221958  0.70999095  0.94900643    -0.21300
C1253       C  0.15650631  0.69106526  0.97011238    -0.09400
C1254       C  0.13843129  0.69224785  0.99838144     0.29500
F1255       F  0.15108610  0.67389821  0.01901624    -0.19900
H1256       H  0.08792426  0.70992618  0.52585312     0.17800
H1257       H  0.15588109  0.70929734  0.92707085     0.17800
F1258       F  0.09454362  0.74647832  0.93448293    -0.19900
C1259       C  0.41213856  0.70323293  0.49807413    -0.21300
C1260       C  0.42275308  0.72436124  0.97864899    -0.09400
C1261       C  0.39964521  0.72640657  0.95207670     0.29500
C1262       C  0.36857737  0.70638912  0.94428445    -0.21300
C1263       C  0.35936569  0.68442525  0.96317985    -0.09400
C1264       C  0.38053905  0.68351316  0.99063138     0.29500
F1265       F  0.37264134  0.66280539  0.50960285    -0.19900
H1266       H  0.42985214  0.70140506  0.51864686     0.17800
H1267       H  0.35202989  0.70790594  0.92328281     0.17800
F1268       F  0.40779919  0.74731457  0.93344719    -0.19900
C1269       C  0.09086493  0.80135185  0.49896317    -0.21300
C1270       C  0.08090497  0.77933136  0.51736778    -0.09400
C1271       C  0.10430850  0.77632343  0.54375381     0.29500
C1272       C  0.13474683  0.79633732  0.55252831    -0.21300
C1273       C  0.14322007  0.81915655  0.53471354    -0.09400
C1274       C  0.12197554  0.82102251  0.50734698     0.29500
F1275       F  0.12928931  0.84259066  0.98940032    -0.19900
H1276       H  0.07293367  0.80391775  0.97858085     0.17800
H1277       H  0.15141185  0.79413188  0.57342340     0.17800
F1278       F  0.09671362  0.75460397  0.56141066    -0.19900
C1279       C  0.39811498  0.79342267  0.99299492    -0.21300
C1280       C  0.41574858  0.77528194  0.51385341    -0.09400
C1281       C  0.39597742  0.77425282  0.54172018     0.29500
C1282       C  0.36250205  0.79303824  0.54940805    -0.21300
C1283       C  0.34704112  0.81242895  0.52911575    -0.09400
C1284       C  0.36385034  0.81177034  0.50045474     0.29500
F1285       F  0.35007654  0.83045765  0.98049686    -0.19900
H1286       H  0.41299885  0.79462882  0.97144918     0.17800
H1287       H  0.34975472  0.79313647  0.57157855     0.17800
F1288       F  0.41079970  0.75613332  0.56194905    -0.19900
C1289       C  0.50674803  0.77586085  0.57433652    -0.21300
C1290       C  0.49723051  0.78777313  0.54711387    -0.09400
C1291       C  0.98907860  0.81578141  0.54506082     0.29500
C1292       C  0.99021676  0.83172636  0.57018300    -0.21300
C1293       C  0.50098417  0.82000841  0.59732291    -0.09400
C1294       C  0.50963345  0.79200547  0.59935372     0.29500
F1295       F  0.51965201  0.78029364  0.62543848    -0.19900
H1296       H  0.51273523  0.75410478  0.57597664     0.17800
H1297       H  0.98339402  0.85337413  0.56841851     0.17800
F1298       F  0.98067084  0.82762420  0.51881487    -0.19900
C1299       C  0.14526449  0.72264786  0.79186194    -0.21300
C1300       C  0.16624049  0.72125685  0.76444511    -0.09400
C1301       C  0.15163530  0.70171063  0.74403037     0.29500
C1302       C  0.11867835  0.68278806  0.75168142    -0.21300
C1303       C  0.10045099  0.68288547  0.77990028    -0.09400
C1304       C  0.11310977  0.70334847  0.79974472     0.29500
F1305       F  0.09512902  0.70422970  0.82698577    -0.19900
H1306       H  0.15512691  0.73792511  0.80763851     0.17800
H1307       H  0.10919917  0.66712943  0.73615681     0.17800
F1308       F  0.17127245  0.69987965  0.71733516    -0.19900
C1309       C  0.37900030  0.68424876  0.75643288    -0.21300
C1310       C  0.39675370  0.68567503  0.78482445    -0.09400
C1311       C  0.38325727  0.70739211  0.80320928     0.29500
C1312       C  0.35079778  0.72610770  0.79383737    -0.21300
C1313       C  0.33122890  0.72347380  0.76613964    -0.09400
C1314       C  0.34638326  0.70280746  0.74723537     0.29500
F1315       F  0.32691973  0.69919259  0.72071412    -0.19900
H1316       H  0.38854280  0.66784219  0.74181495     0.17800
H1317       H  0.33912710  0.74175568  0.80875333     0.17800
F1318       F  0.40020874  0.71007338  0.83058742    -0.19900
C1319       C  0.37347228  0.56591681  0.75766986    -0.21300
C1320       C  0.39573410  0.56458892  0.78456232    -0.09400
C1321       C  0.38678562  0.54287381  0.80369967     0.29500
C1322       C  0.35509583  0.52308528  0.79620304    -0.21300
C1323       C  0.33065182  0.52536447  0.77011436    -0.09400
C1324       C  0.34086343  0.54660663  0.75057331     0.29500
F1325       F  0.31767003  0.54939073  0.72524573    -0.19900
H1326       H  0.37997577  0.58259886  0.74274633     0.17800
H1327       H  0.34852433  0.50661881  0.81128386     0.17800
F1328       F  0.40801409  0.54116756  0.82986397    -0.19900
C1329       C  0.11498075  0.54046307  0.80708017    -0.21300
C1330       C  0.10039389  0.56011469  0.78664753    -0.09400
C1331       C  0.11584036  0.55812444  0.75761528     0.29500
C1332       C  0.14797689  0.53855347  0.75005460    -0.21300
C1333       C  0.16530157  0.52059502  0.77112209    -0.09400
C1334       C  0.14689427  0.52073846  0.79936687     0.29500
F1335       F  0.16216150  0.00312292  0.81997708    -0.19900
H1336       H  0.10305610  0.54103114  0.82943373     0.17800
H1337       H  0.16187268  0.53875856  0.72817860     0.17800
F1338       F  0.10240575  0.57622284  0.73694627    -0.19900
C1339       C  0.00308128  0.70873784  0.89662113    -0.21300
C1340       C  0.51195715  0.68093457  0.90026762    -0.09400
C1341       C  0.52087043  0.67047989  0.92824055     0.29500
C1342       C  0.51792890  0.68739137  0.95266761    -0.21300
C1343       C  0.50756244  0.71503709  0.94918487    -0.09400
C1344       C  0.00151892  0.72586605  0.92099158     0.29500
F1345       F  0.99427048  0.75298835  0.91717058    -0.19900
H1346       H  0.99666851  0.71700530  0.87505529     0.17800
H1347       H  0.52398380  0.67906235  0.97424735     0.17800
F1348       F  0.53282247  0.64398966  0.93180828    -0.19900
C1349       C  0.36049048  0.55954469  0.99732650    -0.21300
C1350       C  0.34761473  0.56230705  0.96802485    -0.09400
C1351       C  0.36652773  0.54480938  0.94692297     0.29500
C1352       C  0.39930515  0.52576911  0.95492253    -0.21300
C1353       C  0.41544520  0.52490405  0.98375203    -0.09400
C1354       C  0.39465300  0.54134690  0.00510073     0.29500
F1355       F  0.41018466  0.54164982  0.03296472    -0.19900
H1356       H  0.34665426  0.57303377  0.01380934     0.17800
H1357       H  0.41453023  0.01316214  0.93819292     0.17800
F1358       F  0.35468843  0.54698251  0.91835922    -0.19900
C1359       C  0.10341470  0.52668269  0.95691688    -0.21300
C1360       C  0.08119812  0.52944580  0.98371940    -0.09400
C1361       C  0.09318075  0.55077525  0.00268542     0.29500
C1362       C  0.12497281  0.57004249  0.99411966    -0.21300
C1363       C  0.14482901  0.56853404  0.96632947    -0.09400
C1364       C  0.13470573  0.54615352  0.94809729     0.29500
F1365       F  0.15444633  0.54330831  0.92153175    -0.19900
H1366       H  0.09519604  0.01007310  0.94231829     0.17800
H1367       H  0.13240863  0.58688598  0.00866200     0.17800
F1368       F  0.07222574  0.55380202  0.02882846    -0.19900
C1369       C  0.00406610  0.54391240  0.90047326    -0.21300
C1370       C  0.49245091  0.57142830  0.90307013    -0.09400
C1371       C  0.48208808  0.58252822  0.93056532     0.29500
C1372       C  0.48560501  0.56646274  0.95557599    -0.21300
C1373       C  0.49789447  0.53900070  0.95307630    -0.09400
C1374       C  0.00611793  0.52759044  0.92536167     0.29500
F1375       F  0.01578800  0.50063402  0.92251410    -0.19900
H1376       H  0.01184127  0.53520647  0.87925988     0.17800
H1377       H  0.47787648  0.57517392  0.97679159     0.17800
F1378       F  0.46789392  0.60872770  0.93306550    -0.19900
C1379       C  0.39649916  0.97710029  0.54421531    -0.21300
C1380       C  0.42050353  0.97372136  0.51814161    -0.09400
C1381       C  0.41079672  0.95151300  0.99984396     0.29500
C1382       C  0.37931360  0.93208079  0.50834311    -0.21300
C1383       C  0.35754804  0.93432724  0.53544703    -0.09400
C1384       C  0.36549079  0.95745646  0.55300272     0.29500
F1385       F  0.34387018  0.96086959  0.57885498    -0.19900
H1386       H  0.40341539  0.99418268  0.55849269     0.17800
H1387       H  0.37358926  0.91459676  0.99436765     0.17800
F1388       F  0.43378786  0.94777857  0.97454642    -0.19900
C1389       C  0.13680886  0.95836076  0.55403544    -0.21300
C1390       C  0.15534798  0.94129475  0.53244230    -0.09400
C1391       C  0.14193953  0.94467874  0.50325219     0.29500
C1392       C  0.10743146  0.96298943  0.99637138    -0.21300
C1393       C  0.08641127  0.97850333  0.51834812    -0.09400
C1394       C  0.10330979  0.97726348  0.54698090     0.29500
F1395       F  0.08555099  0.99311819  0.56839351    -0.19900
H1396       H  0.14717168  0.95629572  0.57663466     0.17800
H1397       H  0.09499460  0.96369423  0.97413476     0.17800
F1398       F  0.15916348  0.92852021  0.98191315    -0.19900
C1399       C  0.48953429  0.97340655  0.57591230    -0.21300
C1400       C  0.50290551  0.96317621  0.54857298    -0.09400
C1401       C  0.01516321  0.93569996  0.54578003     0.29500
C1402       C  0.01438100  0.91878300  0.57029281    -0.21300
C1403       C  0.49981830  0.92886840  0.59752511    -0.09400
C1404       C  0.48714092  0.95627088  0.60016655     0.29500
F1405       F  0.47376371  0.96659609  0.62629282    -0.19900
H1406       H  0.48049228  0.99470808  0.57829017     0.17800
H1407       H  0.02439040  0.89764935  0.56791978     0.17800
F1408       F  0.02756598  0.92531917  0.51945819    -0.19900
C1409       C  0.00246088  0.48171019  0.02312425     0.02200
C1410       C  0.54292916  0.49220279  0.01165689     0.02200
C1411       C  0.54095905  0.01291405  0.49039415     0.02200
C1412       C  0.49915290  0.02131564  0.47907566     0.02200
C1413       C  0.95877837  0.01110818  0.49075395     0.02200
C1414       C  0.96068622  0.49038439  0.01191340     0.02200
O1415       O  0.52853376  0.10422502  0.37465666    -0.85400
O1416       O  0.56722622  0.08780637  0.32333106    -0.82400
C1417       C  0.57182303  0.08335978  0.29636487     0.98100
O1418       O  0.55396566  0.09937076  0.27789454    -0.82500
O1419       O  0.96404407  0.08865061  0.28169023    -0.85100
C1420       C  0.92602425  0.08672662  0.29328985     1.02600
O1421       O  0.91296148  0.10410716  0.31190248    -0.77900
O1422       O  0.96200612  0.09084389  0.36047155    -0.78100
C1423       C  0.99464917  0.08919406  0.37768990     1.02600
O1424       O  0.53957740  0.15981797  0.35761187    -0.85400
O1425       O  0.58578135  0.14408049  0.30877834    -0.82400
C1426       C  0.57147949  0.16041420  0.28953015     0.98100
O1427       O  0.53333823  0.15733111  0.27841781    -0.82500
O1428       O  0.94335222  0.14637755  0.27779662    -0.85100
C1429       C  0.92650832  0.16350069  0.29557573     1.02600
O1430       O  0.93294242  0.16089166  0.32263652    -0.77900
O1431       O  0.97406747  0.14708124  0.37415810    -0.78000
C1432       C  0.00806578  0.16223050  0.37562936     1.02500
Cr1433     Cr  0.55143014  0.12394362  0.33947025     1.93700
Cr1434     Cr  0.99878685  0.12301984  0.28183893     1.93200
Cr1435     Cr  0.94927841  0.12568022  0.34059513     1.39100
O1436       O  0.99985138  0.12421675  0.32058506    -1.23100
C1437       C  0.50467142  0.23310418  0.47491145     0.02200
C1438       C  0.54427205  0.24267023  0.48822023     0.02200
C1439       C  0.54128179  0.26247695  0.01021457     0.02200
C1440       C  0.99899820  0.27069303  0.02075697     0.02200
C1441       C  0.95920857  0.26130915  0.00752475     0.02200
C1442       C  0.96220242  0.24149307  0.48533563     0.02200
O1443       O  0.53020879  0.39333798  0.12533261    -0.85400
O1444       O  0.57060063  0.40686022  0.17743577    -0.82400
C1445       C  0.57559008  0.41001479  0.20463345     0.98100
O1446       O  0.55680766  0.39385553  0.22247030    -0.82500
O1447       O  0.96802081  0.40893881  0.22105788    -0.85100
C1448       C  0.93092043  0.41392579  0.20905113     1.02600
O1449       O  0.91605869  0.39856334  0.18914572    -0.77900
O1450       O  0.96686169  0.41069151  0.14064964    -0.78100
C1451       C  0.99908523  0.41053102  0.12282728     1.02600
O1452       O  0.53326895  0.33737398  0.14075985    -0.85400
O1453       O  0.58331106  0.34988390  0.18931841    -0.82400
C1454       C  0.56789320  0.33300611  0.20744662     0.98100
O1455       O  0.53022968  0.33696727  0.21912179    -0.82500
O1456       O  0.94158299  0.35226762  0.22189031    -0.85100
C1457       C  0.92207965  0.33707309  0.20346620     1.02600
O1458       O  0.92694647  0.34113430  0.17642326    -0.77900
O1459       O  0.96959315  0.35455447  0.12554822    -0.78000
C1460       C  0.00099933  0.33752886  0.12304687     1.02500
Cr1461     Cr  0.55046077  0.37204630  0.15992918     1.93700
Cr1462     Cr  0.99921403  0.37304536  0.21818055     1.93200
Cr1463     Cr  0.94862674  0.37604021  0.15968526     1.39100
O1464       O  0.99933729  0.37376999  0.17936214    -1.23100
C1465       C  0.74873578  0.01652725  0.27621845     0.02200
C1466       C  0.70818707  0.00631727  0.26454835     0.02200
C1467       C  0.70970492  0.48614297  0.24268890     0.02200
C1468       C  0.75134578  0.47777932  0.23105434     0.02200
C1469       C  0.79193376  0.48779570  0.24284402     0.02200
C1470       C  0.79044915  0.00825431  0.26448802     0.02200
O1471       O  0.71997661  0.41290139  0.10913373    -0.85400
O1472       O  0.66827714  0.40202940  0.06082635    -0.82400
C1473       C  0.68324329  0.41776007  0.04133509     0.98100
O1474       O  0.72037655  0.41290399  0.02928675    -0.82500
O1475       O  0.80871440  0.39694606  0.02708469    -0.85100
C1476       C  0.82807168  0.41213001  0.04559435     1.02600
O1477       O  0.82368807  0.40788218  0.07263794    -0.77900
O1478       O  0.78241553  0.39422448  0.12418758    -0.78100
C1479       C  0.75182056  0.41178636  0.12713271     1.02600
O1480       O  0.72093833  0.35638398  0.12358273    -0.85400
O1481       O  0.67815967  0.34459935  0.07225786    -0.82400
C1482       C  0.67321076  0.34103412  0.04514944     0.98100
O1483       O  0.69279696  0.35639563  0.02693728    -0.82500
O1484       O  0.78130348  0.34036365  0.02794606    -0.85100
C1485       C  0.81895304  0.33548997  0.03925931     1.02600
O1486       O  0.83421291  0.35083723  0.05903612    -0.77900
O1487       O  0.78329586  0.33831409  0.10735634    -0.78000
C1488       C  0.75143129  0.33862727  0.12541390     1.02500
Cr1489     Cr  0.70065114  0.37877058  0.08967707     1.93700
Cr1490     Cr  0.75080777  0.37660624  0.03084094     1.93200
Cr1491     Cr  0.80208458  0.37308528  0.08908452     1.39100
O1492       O  0.75115452  0.37614251  0.06971875    -1.23100
C1493       C  0.74843631  0.22920165  0.27055131     0.02200
C1494       C  0.78939083  0.23832677  0.25872958     0.02200
C1495       C  0.78914440  0.25818822  0.23657416     0.02200
C1496       C  0.74795258  0.26701715  0.22468157     0.02200
C1497       C  0.70684723  0.25746272  0.23620456     0.02200
C1498       C  0.70732932  0.23733573  0.25812210     0.02200
O1499       O  0.71788724  0.10755346  0.37697789    -0.85400
O1500       O  0.67799476  0.09494095  0.42890620    -0.82400
C1501       C  0.67426823  0.09077911  0.45598963     0.98100
O1502       O  0.69420401  0.10602266  0.47422493    -0.82500
O1503       O  0.78257418  0.09048430  0.47121021    -0.85100
C1504       C  0.81948574  0.08561586  0.45892211     1.02600
O1505       O  0.83400239  0.10124239  0.43921411    -0.77900
O1506       O  0.78060225  0.08923462  0.39200921    -0.78100
C1507       C  0.74792884  0.08959165  0.37458965     1.02600
O1508       O  0.71749269  0.16394744  0.39241561    -0.85400
O1509       O  0.66800256  0.15192611  0.44163718    -0.82400
C1510       C  0.68384719  0.16758022  0.46086941     0.98100
O1511       O  0.72147232  0.16279128  0.47217270    -0.82500
O1512       O  0.80992619  0.14723008  0.47239805    -0.85100
C1513       C  0.82895914  0.16234790  0.45365379     1.02600
O1514       O  0.82323810  0.15832275  0.42668130    -0.77900
O1515       O  0.77936788  0.14536902  0.37615221    -0.78000
C1516       C  0.74880593  0.16301262  0.37396013     1.02500
Cr1517     Cr  0.69923515  0.12942044  0.41169302     1.93700
Cr1518     Cr  0.75193379  0.12664404  0.46952384     1.93200
Cr1519     Cr  0.80055620  0.12378527  0.41028221     1.39100
O1520       O  0.75058050  0.12667840  0.43066432    -1.23100
C1521       C  0.75728247  0.18438509  0.29522935    -0.21300
C1522       C  0.74847650  0.21228932  0.29717600    -0.09400
C1523       C  0.74057722  0.22438012  0.32461908     0.29500
C1524       C  0.73916233  0.20825259  0.34978017    -0.21300
C1525       C  0.74828521  0.18028239  0.34783498    -0.09400
C1526       C  0.75836753  0.16858467  0.32045426     0.29500
F1527       F  0.76920245  0.14180098  0.31805765    -0.19900
H1528       H  0.76408909  0.17501371  0.27423092     0.17800
H1529       H  0.73232454  0.21763769  0.37076736     0.17800
F1530       F  0.73416908  0.25174085  0.32690619    -0.19900
C1531       C  0.76150390  0.27538114  0.17183688    -0.21300
C1532       C  0.74859806  0.28559214  0.19928066    -0.09400
C1533       C  0.73703523  0.31314894  0.20229768     0.29500
C1534       C  0.73742406  0.33012243  0.17788780    -0.21300
C1535       C  0.75095754  0.32004230  0.15046968    -0.09400
C1536       C  0.76352660  0.29260610  0.14759946     0.29500
F1537       F  0.77641686  0.28236533  0.12131629    -0.19900
H1538       H  0.77009682  0.25402197  0.16930392     0.17800
H1539       H  0.72790951  0.35133816  0.18049044     0.17800
F1540       F  0.72534719  0.32350387  0.22876137    -0.19900
C1541       C  0.74067471  0.47234144  0.17754525    -0.21300
C1542       C  0.75180880  0.46050984  0.20454997    -0.09400
C1543       C  0.76334261  0.43283505  0.20589613     0.29500
C1544       C  0.76413899  0.41729988  0.18033012    -0.21300
C1545       C  0.75185955  0.42896104  0.15339160    -0.09400
C1546       C  0.73960818  0.45654424  0.15217094     0.29500
F1547       F  0.72773894  0.46829437  0.12644445    -0.19900
H1548       H  0.73235149  0.49383535  0.17628536     0.17800
H1549       H  0.77346352  0.39595994  0.18163716     0.17800
F1550       F  0.77393398  0.42099840  0.23180990    -0.19900
C1551       C  0.73125314  0.06187004  0.29850386    -0.21300
C1552       C  0.74785588  0.03531290  0.30153334    -0.09400
C1553       C  0.76203279  0.02610410  0.32911704     0.29500
C1554       C  0.76280197  0.04396696  0.35285908    -0.21300
C1555       C  0.74611725  0.07053126  0.34986575    -0.09400
C1556       C  0.72843627  0.07896986  0.32276673     0.29500
F1557       F  0.70876261  0.10376084  0.31957371    -0.19900
H1558       H  0.71941395  0.06906250  0.27751141     0.17800
H1559       H  0.77528410  0.03686717  0.37374289     0.17800
F1560       F  0.77465240  0.99974354  0.33307131    -0.19900
C1561       C  0.60826164  0.30531486  0.24458344    -0.21300
C1562       C  0.59586757  0.30938836  0.21541399    -0.09400
C1563       C  0.61558662  0.29321474  0.19342610     0.29500
C1564       C  0.64882083  0.27419885  0.20049586    -0.21300
C1565       C  0.66424711  0.27195966  0.22936749    -0.09400
C1566       C  0.64263707  0.28705541  0.25152688     0.29500
F1567       F  0.65754281  0.28602734  0.27952577    -0.19900
H1568       H  0.59385001  0.31785448  0.26170712     0.17800
H1569       H  0.66467140  0.26259276  0.18317329     0.17800
F1570       F  0.60406633  0.29669306  0.16496099    -0.19900
C1571       C  0.83629460  0.29824075  0.24790877    -0.21300
C1572       C  0.82976130  0.27480794  0.23081560    -0.09400
C1573       C  0.85649760  0.27074595  0.20591993     0.29500
C1574       C  0.88703439  0.29088309  0.19726835    -0.21300
C1575       C  0.89208976  0.31499143  0.21372012    -0.09400
C1576       C  0.86724483  0.31808974  0.23963184     0.29500
F1577       F  0.87059956  0.34114809  0.25594216    -0.21100
H1578       H  0.81548966  0.30185449  0.26692843     0.17800
H1579       H  0.90630484  0.28783057  0.17747234     0.17800
F1580       F  0.85162666  0.24800802  0.18929903    -0.19900
C1581       C  0.89090873  0.43983751  0.24813663    -0.21300
C1582       C  0.90295955  0.43714649  0.21866005    -0.09400
C1583       C  0.88346838  0.45469008  0.19787958     0.29500
C1584       C  0.85055529  0.47347819  0.20630102    -0.21300
C1585       C  0.83516233  0.47420089  0.23529961    -0.09400
C1586       C  0.85688455  0.45796859  0.25639968     0.29500
F1587       F  0.84241419  0.45781232  0.28452583    -0.19900
H1588       H  0.90534208  0.42639268  0.26440339     0.17800
H1589       H  0.83473666  0.48604197  0.18979141     0.17800
F1590       F  0.89491522  0.45281576  0.16921886    -0.19900
C1591       C  0.62488637  0.42938411  0.24356803    -0.21300
C1592       C  0.60531087  0.43188536  0.21576223    -0.09400
C1593       C  0.61575123  0.45490625  0.19859451     0.29500
C1594       C  0.64682576  0.47411088  0.20855196    -0.21300
C1595       C  0.66893987  0.47026007  0.23526226    -0.09400
C1596       C  0.65667156  0.44823965  0.25314124     0.29500
F1597       F  0.67738523  0.44413326  0.27917757    -0.19900
H1598       H  0.61724259  0.41205933  0.25736850     0.17800
H1599       H  0.65526609  0.49128051  0.19476047     0.17800
F1600       F  0.59664278  0.45861875  0.17197548    -0.19900
C1601       C  0.60395910  0.21069878  0.50465783    -0.21300
C1602       C  0.58753634  0.22840108  0.48296620    -0.09400
C1603       C  0.60853295  0.22890479  0.45551345     0.29500
C1604       C  0.64222254  0.20998656  0.44901695    -0.21300
C1605       C  0.65650691  0.19105719  0.47011956    -0.09400
C1606       C  0.63843035  0.19223494  0.49838845     0.29500
F1607       F  0.65108370  0.17388162  0.51901993    -0.19900
H1608       H  0.58792582  0.20991133  0.02586249     0.17800
H1609       H  0.65588590  0.20929672  0.42708162     0.17800
F1610       F  0.59454938  0.24647739  0.43449978    -0.19900
C1611       C  0.91214461  0.20322765  0.99808433    -0.21300
C1612       C  0.92275568  0.22435982  0.47866148    -0.09400
C1613       C  0.89964863  0.22640757  0.45208935     0.29500
C1614       C  0.86857762  0.20639248  0.44429657    -0.21300
C1615       C  0.85936392  0.18442801  0.46319076    -0.09400
C1616       C  0.88053719  0.18351340  0.49064217     0.29500
F1617       F  0.87264897  0.16279815  0.00960706    -0.19900
H1618       H  0.92985919  0.20139701  0.01865646     0.17800
H1619       H  0.85203088  0.20791087  0.42329475     0.17800
F1620       F  0.90780850  0.24731476  0.43345985    -0.19900
C1621       C  0.59087015  0.30134744  0.99897416    -0.21300
C1622       C  0.58091288  0.27932624  0.01737840    -0.09400
C1623       C  0.60431746  0.27631880  0.04376416     0.29500
C1624       C  0.63475516  0.29633338  0.05253832    -0.21300
C1625       C  0.64322640  0.31915291  0.03472354    -0.09400
C1626       C  0.62197962  0.32101885  0.00735771     0.29500
F1627       F  0.62929595  0.34258245  0.48940263    -0.19900
H1628       H  0.57294030  0.30390881  0.47858649     0.17800
H1629       H  0.65142125  0.29412824  0.07343308     0.17800
F1630       F  0.59672369  0.25459933  0.06142123    -0.19900
C1631       C  0.89811927  0.29342076  0.49300220    -0.21300
C1632       C  0.91575569  0.27528064  0.01386456    -0.09400
C1633       C  0.89598947  0.27425783  0.04173326     0.29500
C1634       C  0.86251615  0.29304533  0.04941942    -0.21300
C1635       C  0.84705062  0.31243154  0.02912366    -0.09400
C1636       C  0.86385391  0.31176625  0.00046125     0.29500
F1637       F  0.85007629  0.33045281  0.48050082    -0.19900
H1638       H  0.91300030  0.29462430  0.47145552     0.17800
H1639       H  0.84977332  0.29314828  0.07159096     0.17800
F1640       F  0.91081471  0.25614253  0.06196549    -0.19900
C1641       C  0.00675568  0.27586106  0.07434606    -0.21300
C1642       C  0.99723935  0.28777192  0.04712267    -0.09400
C1643       C  0.48908464  0.31577961  0.04506668     0.29500
C1644       C  0.49022021  0.33172545  0.07018810    -0.21300
C1645       C  0.00098773  0.32000938  0.09732909    -0.09400
C1646       C  0.00963816  0.29200685  0.09936211     0.29500
F1647       F  0.01965445  0.28029653  0.12544803    -0.19900
H1648       H  0.01274300  0.25410516  0.07598775     0.17800
H1649       H  0.48339563  0.35337302  0.06842268     0.17800
F1650       F  0.48067692  0.32762099  0.01881998    -0.19900
C1651       C  0.64531714  0.22261674  0.29188410    -0.21300
C1652       C  0.66624359  0.22124817  0.26444986    -0.09400
C1653       C  0.65159567  0.20172188  0.24402603     0.29500
C1654       C  0.61864240  0.18279824  0.25168181    -0.21300
C1655       C  0.60046471  0.18287254  0.27991463    -0.09400
C1656       C  0.61316902  0.20331493  0.29977111     0.29500
F1657       F  0.59523652  0.20417478  0.32702644    -0.19900
H1658       H  0.65521706  0.23787750  0.30766958     0.17800
H1659       H  0.60912853  0.16715558  0.23614777     0.17800
F1660       F  0.67118992  0.19990896  0.21731592    -0.19900
C1661       C  0.87898304  0.18423359  0.25643735    -0.21300
C1662       C  0.89676528  0.18567685  0.28482009    -0.09400
C1663       C  0.88328864  0.20740507  0.30319596     0.29500
C1664       C  0.85082208  0.22611640  0.29382470    -0.21300
C1665       C  0.83122876  0.22346764  0.26613621    -0.09400
C1666       C  0.84635984  0.20278835  0.24724064     0.29500
F1667       F  0.82687227  0.19916044  0.22072896    -0.19900
H1668       H  0.88850843  0.16781725  0.24182711     0.17800
H1669       H  0.83916880  0.24177471  0.30873407     0.17800
F1670       F  0.90026817  0.21010202  0.33056488    -0.19900
C1671       C  0.87312895  0.06610981  0.25776356    -0.21300
C1672       C  0.89569242  0.06462222  0.28453743    -0.09400
C1673       C  0.88702384  0.04276594  0.30354628     0.29500
C1674       C  0.85531704  0.02298764  0.29604190    -0.21300
C1675       C  0.83062014  0.02540026  0.27006911    -0.09400
C1676       C  0.84053417  0.04679626  0.25065645     0.29500
F1677       F  0.81706973  0.04971675  0.22545350    -0.19900
H1678       H  0.87940727  0.08290567  0.24294510     0.17800
H1679       H  0.84892549  0.00642510  0.31103668     0.17800
F1680       F  0.90852491  0.04091829  0.32960392    -0.19900
C1681       C  0.61499121  0.04045683  0.30708960    -0.21300
C1682       C  0.60037566  0.06009833  0.28665447    -0.09400
C1683       C  0.61578914  0.05809658  0.25761527     0.29500
C1684       C  0.64792687  0.03852811  0.25004941    -0.21300
C1685       C  0.66528794  0.02058504  0.27111919    -0.09400
C1686       C  0.64690789  0.02073541  0.29937164     0.29500
F1687       F  0.66214589  0.50311793  0.31997710    -0.19900
H1688       H  0.60309197  0.04103312  0.32944862     0.17800
H1689       H  0.66179955  0.03872689  0.22816710     0.17800
F1690       F  0.60232251  0.07618252  0.23694256    -0.19900
C1691       C  0.50309364  0.20872673  0.39663744    -0.21300
C1692       C  0.01195812  0.18092236  0.40028275    -0.09400
C1693       C  0.02085962  0.17046628  0.42825692     0.29500
C1694       C  0.01792046  0.18737882  0.45268379    -0.21300
C1695       C  0.00756455  0.21502604  0.44919993    -0.09400
C1696       C  0.50153081  0.22585487  0.42100784     0.29500
F1697       F  0.49429147  0.25297797  0.41718630    -0.19900
H1698       H  0.49668984  0.21699551  0.37507101     0.17800
H1699       H  0.02396760  0.17904924  0.47426424     0.17800
F1700       F  0.03279694  0.14397371  0.43182619    -0.19900
C1701       C  0.86049160  0.05954165  0.49732596    -0.21300
C1702       C  0.84762223  0.06230822  0.46802346    -0.09400
C1703       C  0.86653241  0.04480973  0.44692162     0.29500
C1704       C  0.89930163  0.02576453  0.45492208    -0.21300
C1705       C  0.91544005  0.02489713  0.48375204    -0.09400
C1706       C  0.89464836  0.04133999  0.50510097     0.29500
F1707       F  0.91017600  0.04163961  0.53296594    -0.19900
H1708       H  0.84665537  0.07303030  0.51380921     0.17800
H1709       H  0.91452801  0.51316564  0.43819938     0.17800
F1710       F  0.85469905  0.04698677  0.41835723    -0.19900
C1711       C  0.60340171  0.02668767  0.45690289    -0.21300
C1712       C  0.58119301  0.02944673  0.48370858    -0.09400
C1713       C  0.59318623  0.05077054  0.50267894     0.29500
C1714       C  0.62498233  0.07003605  0.49411520    -0.21300
C1715       C  0.64483208  0.06853166  0.46632277    -0.09400
C1716       C  0.63469624  0.04615699  0.44808519     0.29500
F1717       F  0.65442799  0.04331594  0.42151633    -0.19900
H1718       H  0.59519444  0.51007121  0.44232842     0.17800
H1719       H  0.63242709  0.08687509  0.50866158     0.17800
F1720       F  0.57223926  0.05379310  0.52882527    -0.19900
C1721       C  0.50402457  0.04390702  0.40046874    -0.21300
C1722       C  0.99240335  0.07142096  0.40306602    -0.09400
C1723       C  0.98204594  0.08252172  0.43056164     0.29500
C1724       C  0.98558052  0.06645908  0.45557323    -0.21300
C1725       C  0.99788165  0.03899888  0.45307376    -0.09400
C1726       C  0.50609397  0.02758730  0.42535790     0.29500
F1727       F  0.51577212  0.00063195  0.42251061    -0.19900
H1728       H  0.51179848  0.03520146  0.37925500     0.17800
H1729       H  0.97785591  0.07517058  0.47678924     0.17800
F1730       F  0.96784570  0.10872011  0.43306162    -0.19900
C1731       C  0.89648923  0.47710940  0.04421636    -0.21300
C1732       C  0.92049527  0.47373056  0.01814329    -0.09400
C1733       C  0.91079429  0.45151775  0.49984980     0.29500
C1734       C  0.87930400  0.43209085  0.00834259    -0.21300
C1735       C  0.85753883  0.43433618  0.03544672    -0.09400
C1736       C  0.86547965  0.45746568  0.05300250     0.29500
F1737       F  0.84385687  0.46087876  0.07885400    -0.19900
H1738       H  0.90340564  0.49419133  0.05849439     0.17800
H1739       H  0.87358909  0.41460072  0.49437276     0.17800
F1740       F  0.93378855  0.44778294  0.47455354    -0.19900
C1741       C  0.63680123  0.45835655  0.05404333    -0.21300
C1742       C  0.65533922  0.44129080  0.03244944    -0.09400
C1743       C  0.64192761  0.44467429  0.00325997     0.29500
C1744       C  0.60741674  0.46298666  0.49637832    -0.21300
C1745       C  0.58640312  0.47850068  0.01835722    -0.09400
C1746       C  0.60330202  0.47725965  0.04698987     0.29500
F1747       F  0.58554513  0.49311451  0.06840305    -0.19900
H1748       H  0.64716586  0.45629148  0.07664222     0.17800
H1749       H  0.59497591  0.46369169  0.47414272     0.17800
F1750       F  0.65914133  0.42851468  0.48191658    -0.19900
C1751       C  0.98952232  0.47340972  0.07592065    -0.21300
C1752       C  0.00289083  0.46317980  0.04858045    -0.09400
C1753       C  0.51514225  0.43570175  0.04578504     0.29500
C1754       C  0.51436142  0.41878409  0.07029742    -0.21300
C1755       C  0.99980498  0.42887039  0.09753207    -0.09400
C1756       C  0.98712993  0.45627331  0.10017474     0.29500
F1757       F  0.97375755  0.46659836  0.12630217    -0.19900
H1758       H  0.98048353  0.49471159  0.07829965     0.17800
H1759       H  0.52436700  0.39764988  0.06792302     0.17800
F1760       F  0.52753737  0.42532071  0.01946180    -0.19900
C1761       C  0.00245748  0.48171992  0.52313667     0.02200
C1762       C  0.54292624  0.49221099  0.51167082     0.02200
C1763       C  0.54096103  0.01292240  0.99040953     0.02200
C1764       C  0.49915828  0.02132647  0.97908830     0.02200
C1765       C  0.95878117  0.01112117  0.99076348     0.02200
C1766       C  0.96068342  0.49039664  0.51192670     0.02200
O1767       O  0.52858085  0.10423084  0.87465288    -0.85400
O1768       O  0.56725450  0.08781258  0.82331935    -0.82400
C1769       C  0.57184714  0.08336675  0.79635267     0.98100
O1770       O  0.55398133  0.09937569  0.77788273    -0.82500
O1771       O  0.96405933  0.08865190  0.78167132    -0.85100
C1772       C  0.92605692  0.08670807  0.79329236     1.02600
O1773       O  0.91299546  0.10407910  0.81191570    -0.77900
O1774       O  0.96205642  0.09083524  0.86047321    -0.78100
C1775       C  0.99470013  0.08919394  0.87769088     1.02600
O1776       O  0.53959452  0.15982220  0.85759759    -0.85400
O1777       O  0.58579528  0.14408440  0.80876085    -0.82400
C1778       C  0.57148363  0.16041987  0.78951804     0.98100
O1779       O  0.53333719  0.15733764  0.77841435    -0.82500
O1780       O  0.94335830  0.14637423  0.77779450    -0.85100
C1781       C  0.92650522  0.16348973  0.79557792     1.02600
O1782       O  0.93293524  0.16087366  0.82263835    -0.77900
O1783       O  0.97409086  0.14707767  0.87415186    -0.78000
C1784       C  0.00808352  0.16223203  0.87561831     1.02500
Cr1785     Cr  0.55145500  0.12394801  0.83945830     1.93700
Cr1786     Cr  0.99879813  0.12302192  0.78183133     1.93200
Cr1787     Cr  0.94930332  0.12566693  0.84059631     1.39100
O1788       O  0.99986986  0.12421345  0.82057890    -1.23100
C1789       C  0.50466501  0.23311100  0.97489227     0.02200
C1790       C  0.54426341  0.24267845  0.98820308     0.02200
C1791       C  0.54129555  0.26247112  0.51022992     0.02200
C1792       C  0.99901474  0.27069227  0.52077021     0.02200
C1793       C  0.95922320  0.26130947  0.50754004     0.02200
C1794       C  0.96219213  0.24149559  0.98531729     0.02200
O1795       O  0.53019838  0.39334840  0.62534270    -0.85400
O1796       O  0.57058050  0.40687316  0.67744688    -0.82400
C1797       C  0.57556840  0.41002623  0.70464476     0.98100
O1798       O  0.55679029  0.39386402  0.72248048    -0.82500
O1799       O  0.96799961  0.40893885  0.72106740    -0.85100
C1800       C  0.93089990  0.41392431  0.70905917     1.02600
O1801       O  0.91604378  0.39856370  0.68915043    -0.77900
O1802       O  0.96685101  0.41069817  0.64065859    -0.78100
C1803       C  0.99907594  0.41053991  0.62283745     1.02600
O1804       O  0.53327023  0.33738490  0.64076846    -0.85400
O1805       O  0.58330930  0.34989928  0.68932743    -0.82400
C1806       C  0.56789552  0.33301766  0.70745270     0.98100
O1807       O  0.53022940  0.33697281  0.71912643    -0.82500
O1808       O  0.94157719  0.35226563  0.72189368    -0.85100
C1809       C  0.92207759  0.33707174  0.70346738     1.02600
O1810       O  0.92694332  0.34113645  0.67642494    -0.77900
O1811       O  0.96959438  0.35456115  0.62555299    -0.78000
C1812       C  0.00100305  0.33753677  0.62305398     1.02500
Cr1813     Cr  0.55045287  0.37205817  0.65993865     1.93700
Cr1814     Cr  0.99920232  0.37304891  0.71818798     1.93200
Cr1815     Cr  0.94861957  0.37604439  0.65969037     1.39100
O1816       O  0.99932815  0.37377619  0.67936973    -1.23100
C1817       C  0.74874586  0.01650531  0.77623638     0.02200
C1818       C  0.70820038  0.00630628  0.76455297     0.02200
C1819       C  0.70968735  0.48614975  0.74269296     0.02200
C1820       C  0.75132615  0.47778031  0.73105989     0.02200
C1821       C  0.79191500  0.48779889  0.74284446     0.02200
C1822       C  0.79046565  0.00823871  0.76450403     0.02200
O1823       O  0.71998236  0.41290292  0.60913635    -0.85400
O1824       O  0.66828093  0.40203065  0.56083036    -0.82400
C1825       C  0.68324306  0.41776142  0.54133788     0.98100
O1826       O  0.72037521  0.41290596  0.52928739    -0.82500
O1827       O  0.80871706  0.39695401  0.52708664    -0.85100
C1828       C  0.82807197  0.41213863  0.54559694     1.02600
O1829       O  0.82368927  0.40789013  0.57264044    -0.77900
O1830       O  0.78242161  0.39422753  0.62419105    -0.78100
C1831       C  0.75182429  0.41178790  0.62713674     1.02600
O1832       O  0.72095159  0.35638482  0.62358283    -0.85400
O1833       O  0.67817035  0.34460067  0.57226038    -0.82400
C1834       C  0.67322255  0.34103332  0.54515229     0.98100
O1835       O  0.69280688  0.35639473  0.52693907    -0.82500
O1836       O  0.78131638  0.34036874  0.52794761    -0.85100
C1837       C  0.81896690  0.33549733  0.53926072     1.02600
O1838       O  0.83422559  0.35084705  0.55903567    -0.77900
O1839       O  0.78331054  0.33831814  0.60735437    -0.78000
C1840       C  0.75144646  0.33862915  0.62541212     1.02500
Cr1841     Cr  0.70065944  0.37877209  0.58967926     1.93700
Cr1842     Cr  0.75081403  0.37660985  0.53084222     1.93200
Cr1843     Cr  0.80209306  0.37309143  0.58908540     1.39100
O1844       O  0.75116199  0.37614640  0.56972002    -1.23100
C1845       C  0.74843354  0.22920072  0.77054491     0.02200
C1846       C  0.78939315  0.23831924  0.75872175     0.02200
C1847       C  0.78915219  0.25817993  0.73656518     0.02200
C1848       C  0.74796262  0.26701596  0.72467503     0.02200
C1849       C  0.70685423  0.25747041  0.73620132     0.02200
C1850       C  0.70732939  0.23734307  0.75811777     0.02200
O1851       O  0.71785300  0.10754985  0.87697394    -0.85400
O1852       O  0.67796632  0.09495113  0.92890995    -0.82400
C1853       C  0.67424793  0.09079240  0.95599456     0.98100
O1854       O  0.69419017  0.10603646  0.97422609    -0.82500
O1855       O  0.78255768  0.09048696  0.97121126    -0.85100
C1856       C  0.81946582  0.08561219  0.95892092     1.02600
O1857       O  0.83397928  0.10123102  0.93920554    -0.77900
O1858       O  0.78055687  0.08921956  0.89201075    -0.78100
C1859       C  0.74788216  0.08957969  0.87459207     1.02600
O1860       O  0.71748755  0.16394552  0.89240468    -0.85400
O1861       O  0.66799665  0.15193908  0.94163015    -0.82400
C1862       C  0.68384770  0.16759365  0.96085950     0.98100
O1863       O  0.72147287  0.16280178  0.97216165    -0.82500
O1864       O  0.80992229  0.14723015  0.97238296    -0.85100
C1865       C  0.82896046  0.16234055  0.95363427     1.02600
O1866       O  0.82323841  0.15830923  0.92666262    -0.77900
O1867       O  0.77935066  0.14535246  0.87614212    -0.78000
C1868       C  0.74879997  0.16300293  0.87394882     1.02500
Cr1869     Cr  0.69921708  0.12942457  0.91168855     1.93700
Cr1870     Cr  0.75192447  0.12665023  0.96951754     1.93200
Cr1871     Cr  0.80053475  0.12377172  0.91027309     1.39100
O1872       O  0.75056437  0.12667773  0.93065805    -1.23100
C1873       C  0.75738958  0.18439468  0.79522823    -0.21300
C1874       C  0.74846334  0.21228534  0.79716760    -0.09400
C1875       C  0.74045868  0.22436288  0.82460443     0.29500
C1876       C  0.73904848  0.20823139  0.84976223    -0.21300
C1877       C  0.74829427  0.18027543  0.84782489    -0.09400
C1878       C  0.75849467  0.16859586  0.82045317     0.29500
F1879       F  0.76946551  0.14183181  0.81806355    -0.19900
H1880       H  0.76428277  0.17503436  0.77423617     0.17800
H1881       H  0.73212086  0.21760507  0.87074279     0.17800
F1882       F  0.73395205  0.25171529  0.82688981    -0.19900
C1883       C  0.76151013  0.27538023  0.67183008    -0.21300
C1884       C  0.74861271  0.28559179  0.69927532    -0.09400
C1885       C  0.73706081  0.31314993  0.70229499     0.29500
C1886       C  0.73745052  0.33012424  0.67788614    -0.21300
C1887       C  0.75097584  0.32004362  0.65046670    -0.09400
C1888       C  0.76353645  0.29260630  0.64759382     0.29500
F1889       F  0.77642076  0.28236567  0.62130932    -0.19900
H1890       H  0.77009353  0.25401984  0.66929511     0.17800
H1891       H  0.72794211  0.35134079  0.68049040     0.17800
F1892       F  0.72538076  0.32350509  0.72876005    -0.19900
C1893       C  0.74065613  0.47233985  0.67755150    -0.21300
C1894       C  0.75178833  0.46050885  0.70455671    -0.09400
C1895       C  0.76332568  0.43283442  0.70590314     0.29500
C1896       C  0.76413180  0.41730001  0.68033638    -0.21300
C1897       C  0.75185691  0.42896124  0.65339695    -0.09400
C1898       C  0.73959864  0.45654331  0.65217662     0.29500
F1899       F  0.72773203  0.46829329  0.62644957    -0.19900
H1900       H  0.73232919  0.49383320  0.67629128     0.17800
H1901       H  0.77346009  0.39596073  0.68164342     0.17800
F1902       F  0.77391012  0.42099716  0.73181780    -0.19900
C1903       C  0.73136770  0.06187358  0.79848722    -0.21300
C1904       C  0.74783484  0.03528883  0.80155095    -0.09400
C1905       C  0.76180333  0.02604851  0.82916782     0.29500
C1906       C  0.76256905  0.04391426  0.85290806    -0.21300
C1907       C  0.74605938  0.07051466  0.84987412    -0.09400
C1908       C  0.72853527  0.07898261  0.82274275     0.29500
F1909       F  0.70900589  0.10381134  0.81951289    -0.19900
H1910       H  0.71964833  0.06908161  0.77747162     0.17800
H1911       H  0.77491149  0.03679266  0.87381896     0.17800
F1912       F  0.77424062  0.99965926  0.83315089    -0.19900
C1913       C  0.60827637  0.30532933  0.74458584    -0.21300
C1914       C  0.59587667  0.30940237  0.71541744    -0.09400
C1915       C  0.61559614  0.29323126  0.69342765     0.29500
C1916       C  0.64883029  0.27421461  0.70049509    -0.21300
C1917       C  0.66425902  0.27197363  0.72936599    -0.09400
C1918       C  0.64265454  0.28707098  0.75152658     0.29500
F1919       F  0.65756786  0.28604556  0.77952375    -0.19900
H1920       H  0.59386672  0.31786849  0.76171057     0.17800
H1921       H  0.66467786  0.26260860  0.68317135     0.17800
F1922       F  0.60407551  0.29671232  0.66496298    -0.19900
C1923       C  0.83631646  0.29822216  0.74791169    -0.21300
C1924       C  0.82977267  0.27479691  0.73080856    -0.09400
C1925       C  0.85649760  0.27074416  0.70590573     0.29500
C1926       C  0.88703089  0.29088410  0.69725720    -0.21300
C1927       C  0.89209386  0.31498610  0.71371842    -0.09400
C1928       C  0.86726265  0.31807411  0.73963717     0.29500
F1929       F  0.87062534  0.34112589  0.75595739    -0.21100
H1930       H  0.81552062  0.30182888  0.76693707     0.17800
H1931       H  0.90629147  0.28783913  0.67745580     0.17800
F1932       F  0.85161808  0.24801357  0.68927456    -0.19900
C1933       C  0.89084934  0.43981291  0.74814303    -0.21300
C1934       C  0.90293369  0.43714115  0.71867056    -0.09400
C1935       C  0.88346854  0.45469894  0.69789338     0.29500
C1936       C  0.85055361  0.47348664  0.70631344    -0.21300
C1937       C  0.83513808  0.47419726  0.73530697    -0.09400
C1938       C  0.85682439  0.45794381  0.75640379     0.29500
F1939       F  0.84231433  0.45776567  0.78452094    -0.19900
H1940       H  0.90525714  0.42635372  0.76440589     0.17800
H1941       H  0.83475228  0.48606089  0.68980572     0.17800
F1942       F  0.89494348  0.45283953  0.66923644    -0.19900
C1943       C  0.62486819  0.42939304  0.74357753    -0.21300
C1944       C  0.60528549  0.43189739  0.71577439    -0.09400
C1945       C  0.61572006  0.45492009  0.69860804     0.29500
C1946       C  0.64679962  0.47412248  0.70856286    -0.21300
C1947       C  0.66892060  0.47026849  0.73526999    -0.09400
C1948       C  0.65665643  0.44824714  0.75314870     0.29500
F1949       F  0.67737797  0.44413807  0.77918187    -0.19900
H1950       H  0.61722873  0.41206653  0.75737666     0.17800
H1951       H  0.65523872  0.49129255  0.69477151     0.17800
F1952       F  0.59660208  0.45863587  0.67199245    -0.19900
C1953       C  0.60395637  0.21071229  0.00464373    -0.21300
C1954       C  0.58753121  0.22841220  0.98295062    -0.09400
C1955       C  0.60853083  0.22891673  0.95549882     0.29500
C1956       C  0.64222588  0.21000108  0.94900483    -0.21300
C1957       C  0.65651212  0.19107335  0.97010885    -0.09400
C1958       C  0.63843275  0.19225132  0.99837695     0.29500
F1959       F  0.65108710  0.17389968  0.01900984    -0.19900
H1960       H  0.58793121  0.20989901  0.52587747     0.17800
H1961       H  0.65589030  0.20931072  0.92706974     0.17800
F1962       F  0.59454400  0.24648654  0.93448334    -0.19900
C1963       C  0.91213977  0.20323370  0.49810799    -0.21300
C1964       C  0.92274970  0.22435850  0.97864133    -0.09400
C1965       C  0.89963899  0.22640622  0.95207015     0.29500
C1966       C  0.86857412  0.20638760  0.94427561    -0.21300
C1967       C  0.85936928  0.18442015  0.96316755    -0.09400
C1968       C  0.88054813  0.18350429  0.99061709     0.29500
F1969       F  0.87262762  0.16281104  0.50963501    -0.19900
H1970       H  0.92985087  0.20140388  0.51868151     0.17800
H1971       H  0.85202281  0.20790664  0.92327538     0.17800
F1972       F  0.90778767  0.24731756  0.93344391    -0.19900
C1973       C  0.59089473  0.30133386  0.49897916    -0.21300
C1974       C  0.58092962  0.27931894  0.51739029    -0.09400
C1975       C  0.60432689  0.27631868  0.54377966     0.29500
C1976       C  0.63476393  0.29633490  0.55255030    -0.21300
C1977       C  0.64324164  0.31914912  0.53472883    -0.09400
C1978       C  0.62200332  0.32100706  0.50735955     0.29500
F1979       F  0.62926567  0.34259997  0.98940752    -0.19900
H1980       H  0.57291015  0.30392792  0.97858442     0.17800
H1981       H  0.65142359  0.29413551  0.57344799     0.17800
F1982       F  0.59672602  0.25460487  0.56144344    -0.19900
C1983       C  0.89809554  0.29341573  0.99299190    -0.21300
C1984       C  0.91577298  0.27528535  0.51387688    -0.09400
C1985       C  0.89600031  0.27426357  0.54174358     0.29500
C1986       C  0.86252596  0.29305190  0.54942587    -0.21300
C1987       C  0.84706618  0.31243819  0.52912816    -0.09400
C1988       C  0.86387680  0.31177214  0.50046759     0.29500
F1989       F  0.85004822  0.33044745  0.98049656    -0.19900
H1990       H  0.91297189  0.29462046  0.97144397     0.17800
H1991       H  0.84977737  0.29315527  0.57159603     0.17800
F1992       F  0.91081859  0.25614752  0.56197722    -0.19900
C1993       C  0.00676150  0.27586492  0.57435954    -0.21300
C1994       C  0.99725789  0.28777437  0.54713360    -0.09400
C1995       C  0.48911272  0.31578309  0.54507390     0.29500
C1996       C  0.49024399  0.33173149  0.57019370    -0.21300
C1997       C  0.00099727  0.32001584  0.59733740    -0.09400
C1998       C  0.00963870  0.29201255  0.59937452     0.29500
F1999       F  0.01963980  0.28030331  0.62546349    -0.19900
H2000       H  0.01274165  0.25410842  0.57600435     0.17800
H2001       H  0.48342712  0.35337963  0.56842496     0.17800
F2002       F  0.48071802  0.32762256  0.51882442    -0.19900
C2003       C  0.64526425  0.22264724  0.79185207    -0.21300
C2004       C  0.66624186  0.22125422  0.76443579    -0.09400
C2005       C  0.65164342  0.20170304  0.74402452     0.29500
C2006       C  0.61869153  0.18277824  0.75167855    -0.21300
C2007       C  0.60046312  0.18287815  0.77989714    -0.09400
C2008       C  0.61311538  0.20334545  0.79973811     0.29500
F2009       F  0.59513456  0.20422849  0.82697908    -0.19900
H2010       H  0.65512268  0.23792729  0.80762661     0.17800
H2011       H  0.60921695  0.16711626  0.73615650     0.17800
F2012       F  0.67128334  0.19986926  0.71733039    -0.19900
C2013       C  0.87902809  0.18424964  0.75642889    -0.21300
C2014       C  0.89676277  0.18566881  0.78482602    -0.09400
C2015       C  0.88324514  0.20737776  0.80321537     0.29500
C2016       C  0.85078508  0.22609205  0.79384116    -0.21300
C2017       C  0.83123381  0.22346431  0.76613721    -0.09400
C2018       C  0.84640890  0.20280634  0.74722945     0.29500
F2019       F  0.82696449  0.19919718  0.72070136    -0.19900
H2020       H  0.88858729  0.16784983  0.74180694     0.17800
H2021       H  0.83909956  0.24173372  0.80875972     0.17800
F2022       F  0.90017509  0.21005179  0.83060005    -0.19900
C2023       C  0.87350762  0.06589940  0.75766382    -0.21300
C2024       C  0.89574602  0.06458264  0.78456521    -0.09400
C2025       C  0.88677421  0.04287825  0.80371187     0.29500
C2026       C  0.85508405  0.02308995  0.79621528    -0.21300
C2027       C  0.83066083  0.02535970  0.77011730    -0.09400
C2028       C  0.84089693  0.04659032  0.75056725     0.29500
F2029       F  0.81772584  0.04936472  0.72522974    -0.19900
H2030       H  0.88002981  0.08257281  0.74273267     0.17800
H2031       H  0.84849742  0.00663048  0.81130200     0.17800
F2032       F  0.90798231  0.04118148  0.82988397    -0.19900
C2033       C  0.61498716  0.04045310  0.80707326    -0.21300
C2034       C  0.60040421  0.06010755  0.78664254    -0.09400
C2035       C  0.61585297  0.05811972  0.75761062     0.29500
C2036       C  0.64798771  0.03854805  0.75004857    -0.21300
C2037       C  0.66530878  0.02058669  0.77111445    -0.09400
C2038       C  0.64689900  0.02072787  0.79935859     0.29500
F2039       F  0.66216308  0.50313760  0.81998777    -0.19900
H2040       H  0.60306083  0.04101938  0.82942650     0.17800
H2041       H  0.66188573  0.03875511  0.72817317     0.17800
F2042       F  0.60242307  0.07622139  0.73694361    -0.19900
C2043       C  0.50308935  0.20872852  0.89662053    -0.21300
C2044       C  0.01197175  0.18092641  0.90026914    -0.09400
C2045       C  0.02088326  0.17047372  0.92824333     0.29500
C2046       C  0.01793544  0.18738664  0.95266914    -0.21300
C2047       C  0.00756244  0.21503133  0.94918396    -0.09400
C2048       C  0.50151926  0.22585794  0.92098954     0.29500
F2049       F  0.49426301  0.25297913  0.91716624    -0.19900
H2050       H  0.49667618  0.21699406  0.87505389     0.17800
H2051       H  0.02398987  0.17905947  0.97424981     0.17800
F2052       F  0.03283758  0.14398407  0.93181370    -0.19900
C2053       C  0.86048653  0.05955146  0.99732882    -0.21300
C2054       C  0.84760596  0.06230754  0.96802728    -0.09400
C2055       C  0.86651968  0.04480716  0.94692816     0.29500
C2056       C  0.89930214  0.02577076  0.95492982    -0.21300
C2057       C  0.91544492  0.02491115  0.98375883    -0.09400
C2058       C  0.89465275  0.04135673  0.00510515     0.29500
F2059       F  0.91018729  0.04166490  0.03296842    -0.19900
H2060       H  0.84665077  0.07304306  0.01380953     0.17800
H2061       H  0.91453257  0.51316226  0.93818376     0.17800
F2062       F  0.85467619  0.04697414  0.91836462    -0.19900
C2063       C  0.60342436  0.02668528  0.95693167    -0.21300
C2064       C  0.58119428  0.02945602  0.98372833    -0.09400
C2065       C  0.59315506  0.05079655  0.00268593     0.29500
C2066       C  0.62494404  0.07006465  0.99411828    -0.21300
C2067       C  0.64481683  0.06854617  0.96633396    -0.09400
C2068       C  0.63471145  0.04615721  0.94810973     0.29500
F2069       F  0.65446645  0.04330475  0.92154965    -0.19900
H2070       H  0.59517323  0.51007694  0.94229907     0.17800
H2071       H  0.63236464  0.08691610  0.00865349     0.17800
F2072       F  0.57218133  0.05383266  0.02882136    -0.19900
C2073       C  0.50408043  0.04391048  0.90048040    -0.21300
C2074       C  0.99245856  0.07142546  0.90307102    -0.09400
C2075       C  0.98208605  0.08252880  0.93056306     0.29500
C2076       C  0.98559901  0.06646709  0.95557659    -0.21300
C2077       C  0.99789465  0.03900569  0.95308227    -0.09400
C2078       C  0.50612824  0.02759237  0.92537148     0.29500
F2079       F  0.51580583  0.00063643  0.92252960    -0.19900
H2080       H  0.51186405  0.03520226  0.87926941     0.17800
H2081       H  0.97786415  0.07518073  0.97679003     0.17800
F2082       F  0.96788895  0.10872826  0.93305739    -0.19900
C2083       C  0.89647834  0.47712189  0.54422207    -0.21300
C2084       C  0.92049275  0.47374197  0.51815263    -0.09400
C2085       C  0.91078825  0.45150798  0.99984014     0.29500
C2086       C  0.87930989  0.43209986  0.50834945    -0.21300
C2087       C  0.85753652  0.43434615  0.53545053    -0.09400
C2088       C  0.86546876  0.45747724  0.55300564     0.29500
F2089       F  0.84383798  0.46089068  0.57885421    -0.19900
H2090       H  0.90338856  0.49420530  0.55849954     0.17800
H2091       H  0.87357641  0.41459319  0.99436507     0.17800
F2092       F  0.93377377  0.44777394  0.97454037    -0.19900
C2093       C  0.63680271  0.45835837  0.55404999    -0.21300
C2094       C  0.65533596  0.44129225  0.53245449    -0.09400
C2095       C  0.64191700  0.44467564  0.50326640     0.29500
C2096       C  0.60742716  0.46298382  0.99636889    -0.21300
C2097       C  0.58639884  0.47850492  0.51836825    -0.09400
C2098       C  0.60330259  0.47726226  0.54699964     0.29500
F2099       F  0.58554986  0.49311657  0.56841478    -0.19900
H2100       H  0.64717189  0.45629309  0.57664789     0.17800
H2101       H  0.59499091  0.46368862  0.97413206     0.17800
F2102       F  0.65915889  0.42851449  0.98191153    -0.19900
C2103       C  0.98950941  0.47341860  0.57593162    -0.21300
C2104       C  0.00288555  0.46318964  0.54859257    -0.09400
C2105       C  0.51514186  0.43571389  0.54579932     0.29500
C2106       C  0.51435937  0.41879618  0.57031118    -0.21300
C2107       C  0.99979647  0.42887998  0.59754329    -0.09400
C2108       C  0.98711548  0.45628191  0.60018535     0.29500
F2109       F  0.97373612  0.46660583  0.62631177    -0.19900
H2110       H  0.98046600  0.49471979  0.57830995     0.17800
H2111       H  0.52437106  0.39766304  0.56793743     0.17800
F2112       F  0.52754584  0.42533393  0.51947740    -0.19900
C2113       C  0.00246455  0.98171619  0.02312875     0.02200
C2114       C  0.54293088  0.99220810  0.01166092     0.02200
C2115       C  0.54095972  0.51292467  0.49041868     0.02200
C2116       C  0.49915871  0.52132980  0.47909551     0.02200
C2117       C  0.95877890  0.51112605  0.49076965     0.02200
C2118       C  0.96068898  0.99039114  0.01191948     0.02200
O2119       O  0.52860017  0.60423724  0.37465219    -0.85400
O2120       O  0.56726298  0.58781690  0.32331478    -0.82400
C2121       C  0.57185420  0.58337043  0.29634810     0.98100
O2122       O  0.55398695  0.59937862  0.27787747    -0.82500
O2123       O  0.96406559  0.58864935  0.28166266    -0.85100
C2124       C  0.92607080  0.58669706  0.29329309     1.02600
O2125       O  0.91300929  0.60406432  0.31192045    -0.77900
O2126       O  0.96207763  0.59083127  0.36047415    -0.78100
C2127       C  0.99472181  0.58919460  0.37769162     1.02600
O2128       O  0.53959849  0.65982715  0.35758733    -0.85400
O2129       O  0.58579802  0.64408691  0.30875080    -0.82400
C2130       C  0.57148122  0.66042422  0.28951169     0.98100
O2131       O  0.53333291  0.65734176  0.27841135    -0.82500
O2132       O  0.94335631  0.64636865  0.27779010    -0.85100
C2133       C  0.92649940  0.66348144  0.29557467     1.02600
O2134       O  0.93292860  0.66086376  0.32263504    -0.77900
O2135       O  0.97409881  0.64707737  0.37414533    -0.78000
C2136       C  0.00808814  0.66223484  0.37560799     1.02500
Cr2137     Cr  0.55146293  0.62395211  0.33945184     1.93700
Cr2138     Cr  0.99880031  0.62302052  0.28182577     1.93200
Cr2139     Cr  0.94931205  0.62566015  0.34059475     1.39100
O2140       O  0.99987528  0.62421087  0.32057394    -1.23100
C2141       C  0.50465685  0.73311875  0.47487798     0.02200
C2142       C  0.54425545  0.74268624  0.48818895     0.02200
C2143       C  0.54128824  0.76247639  0.01022145     0.02200
C2144       C  0.99900709  0.77069396  0.02076165     0.02200
C2145       C  0.95921714  0.76131066  0.00752977     0.02200
C2146       C  0.96218676  0.74150129  0.48530305     0.02200
O2147       O  0.53019846  0.89334555  0.12533671    -0.85400
O2148       O  0.57058069  0.90686995  0.17744082    -0.82400
C2149       C  0.57556840  0.91002391  0.20463864     0.98100
O2150       O  0.55678892  0.89386275  0.22247519    -0.82500
O2151       O  0.96799857  0.90893340  0.22106845    -0.85100
C2152       C  0.93089845  0.91392109  0.20906220     1.02600
O2153       O  0.91604429  0.89856840  0.18914582    -0.77900
O2154       O  0.96685526  0.91070005  0.14065381    -0.78100
C2155       C  0.99907923  0.91053906  0.12283183     1.02600
O2156       O  0.53326312  0.83738285  0.14076399    -0.85400
O2157       O  0.58330798  0.84989740  0.18932124    -0.82400
C2158       C  0.56789482  0.83301596  0.20744654     0.98100
O2159       O  0.53022818  0.83697019  0.21911912    -0.82500
O2160       O  0.94157722  0.85226132  0.22188801    -0.85100
C2161       C  0.92207244  0.83707116  0.20346064     1.02600
O2162       O  0.92693260  0.84113991  0.17641841    -0.77900
O2163       O  0.96958765  0.85456230  0.12554735    -0.78000
C2164       C  0.00099312  0.83753554  0.12304825     1.02500
Cr2165     Cr  0.55045015  0.87205578  0.15993323     1.93700
Cr2166     Cr  0.99920157  0.87304466  0.21818264     1.93200
Cr2167     Cr  0.94861658  0.87604705  0.15968512     1.39100
O2168       O  0.99932527  0.87377467  0.17936428    -1.23100
C2169       C  0.74874741  0.51649535  0.27625016     0.02200
C2170       C  0.70820277  0.50630107  0.26456179     0.02200
C2171       C  0.70968998  0.98614787  0.24268534     0.02200
C2172       C  0.75133144  0.97777538  0.23105844     0.02200
C2173       C  0.79191516  0.98779815  0.24284195     0.02200
C2174       C  0.79046930  0.50823056  0.26451716     0.02200
O2175       O  0.71999325  0.91290095  0.10913635    -0.85400
O2176       O  0.66828696  0.90203417  0.06083100    -0.82400
C2177       C  0.68324878  0.91776344  0.04133685     0.98100
O2178       O  0.72037968  0.91290639  0.02928552    -0.82500
O2179       O  0.80871943  0.89695086  0.02708290    -0.85100
C2180       C  0.82807610  0.91213488  0.04559297     1.02600
O2181       O  0.82369398  0.90788635  0.07263652    -0.77900
O2182       O  0.78243113  0.89422212  0.12418854    -0.78100
C2183       C  0.75183674  0.91178403  0.12713547     1.02600
O2184       O  0.72095640  0.85638172  0.12357919    -0.85400
O2185       O  0.67816812  0.84460250  0.07225770    -0.82400
C2186       C  0.67321844  0.84103617  0.04514957     0.98100
O2187       O  0.69280427  0.85639701  0.02693656    -0.82500
O2188       O  0.78131135  0.84036698  0.02794363    -0.85100
C2189       C  0.81896291  0.83549485  0.03925464     1.02600
O2190       O  0.83422524  0.85084412  0.05902866    -0.77900
O2191       O  0.78331382  0.83831400  0.10734910    -0.78000
C2192       C  0.75145086  0.83862558  0.12540776     1.02500
Cr2193     Cr  0.70066395  0.87877204  0.08967783     1.93700
Cr2194     Cr  0.75081413  0.87660919  0.03083931     1.93200
Cr2195     Cr  0.80209712  0.87308753  0.08908078     1.39100
O2196       O  0.75116463  0.87614481  0.06971710    -1.23100
C2197       C  0.74843149  0.72920371  0.27054764     0.02200
C2198       C  0.78939272  0.73831740  0.25872113     0.02200
C2199       C  0.78915407  0.75817681  0.23656290     0.02200
C2200       C  0.74796526  0.76701566  0.22467404     0.02200
C2201       C  0.70685624  0.75747438  0.23620311     0.02200
C2202       C  0.70732833  0.73734890  0.25812122     0.02200
O2203       O  0.71784167  0.60754791  0.37697586    -0.85400
O2204       O  0.67795960  0.59495054  0.42891455    -0.82400
C2205       C  0.67424392  0.59079298  0.45599964     0.98100
O2206       O  0.69418447  0.60603942  0.47422974    -0.82500
O2207       O  0.78255243  0.59049118  0.47121747    -0.85100
C2208       C  0.81945866  0.58561410  0.45892555     1.02600
O2209       O  0.83396995  0.60122981  0.43920687    -0.77900
O2210       O  0.78054215  0.58921521  0.39201543    -0.78100
C2211       C  0.74786735  0.58957551  0.37459686     1.02600
O2212       O  0.71747846  0.66394355  0.39240419    -0.85400
O2213       O  0.66798708  0.65193870  0.44163059    -0.82400
C2214       C  0.68383906  0.66759650  0.46085640     0.98100
O2215       O  0.72146448  0.66280595  0.47215893    -0.82500
O2216       O  0.80991423  0.64723510  0.47238174    -0.85100
C2217       C  0.82895408  0.66234212  0.45363067     1.02600
O2218       O  0.82323310  0.65830677  0.42665959    -0.77900
O2219       O  0.77934056  0.64534829  0.37614287    -0.78000
C2220       C  0.74879227  0.66300027  0.37394912     1.02500
Cr2221     Cr  0.69920801  0.62942344  0.41169028     1.93700
Cr2222     Cr  0.75191733  0.62665409  0.46951908     1.93200
Cr2223     Cr  0.80052487  0.62376868  0.41027394     1.39100
O2224       O  0.75055598  0.62667778  0.43065958    -1.23100
C2225       C  0.75742530  0.68440135  0.29523297    -0.21300
C2226       C  0.74845816  0.71228733  0.29717003    -0.09400
C2227       C  0.74041585  0.72435964  0.32460496     0.29500
C2228       C  0.73900487  0.70822600  0.34976126    -0.21300
C2229       C  0.74829263  0.68027489  0.34782619    -0.09400
C2230       C  0.75853618  0.66860259  0.32045757     0.29500
F2231       F  0.76955592  0.64184576  0.31806997    -0.19900
H2232       H  0.76434872  0.67504504  0.27424311     0.17800
H2233       H  0.73204500  0.71759518  0.37073959     0.17800
F2234       F  0.73387560  0.75170913  0.32689037    -0.19900
C2235       C  0.76151243  0.77537773  0.17182827    -0.21300
C2236       C  0.74861637  0.78559053  0.19927332    -0.09400
C2237       C  0.73706728  0.81314920  0.20229196     0.29500
C2238       C  0.73745745  0.83012253  0.17788237    -0.21300
C2239       C  0.75098143  0.82004074  0.15046313    -0.09400
C2240       C  0.76354087  0.79260310  0.14759141     0.29500
F2241       F  0.77642597  0.78236144  0.12130754    -0.19900
H2242       H  0.77009361  0.75401693  0.16929398     0.17800
H2243       H  0.72795001  0.85133933  0.18048589     0.17800
F2244       F  0.72538954  0.82350590  0.22875676    -0.19900
C2245       C  0.74069367  0.97233885  0.17754782    -0.21300
C2246       C  0.75180619  0.96050500  0.20455485    -0.09400
C2247       C  0.76332883  0.93282838  0.20590299     0.29500
C2248       C  0.76413533  0.91729383  0.18033626    -0.21300
C2249       C  0.75187478  0.92895752  0.15339533    -0.09400
C2250       C  0.73963529  0.95654247  0.15217290     0.29500
F2251       F  0.72778358  0.96829468  0.12644412    -0.19900
H2252       H  0.73237706  0.99383364  0.17628671     0.17800
H2253       H  0.77344976  0.89595238  0.18164458     0.17800
F2254       F  0.77388983  0.92098756  0.23181983    -0.19900
C2255       C  0.73141136  0.56187365  0.29848629    -0.21300
C2256       C  0.74782554  0.53527835  0.30156390    -0.09400
C2257       C  0.76171531  0.52602664  0.32919328     0.29500
C2258       C  0.76248287  0.54389436  0.35293192    -0.21300
C2259       C  0.74604103  0.57050850  0.34988173    -0.09400
C2260       C  0.72857512  0.57898687  0.32273833     0.29500
F2261       F  0.70910008  0.60382964  0.31949420    -0.19900
H2262       H  0.71973670  0.56908691  0.27746203     0.17800
H2263       H  0.77477260  0.53676508  0.37385302     0.17800
F2264       F  0.77408117  0.49962634  0.33318802    -0.19900
C2265       C  0.60828076  0.80533529  0.24458244    -0.21300
C2266       C  0.59587743  0.80940266  0.21541387    -0.09400
C2267       C  0.61559534  0.79322856  0.19342614     0.29500
C2268       C  0.64883156  0.77421409  0.20049567    -0.21300
C2269       C  0.66426278  0.77197821  0.22936639    -0.09400
C2270       C  0.64266051  0.78707901  0.25152512     0.29500
F2271       F  0.65757699  0.78605868  0.27952179    -0.19900
H2272       H  0.59387238  0.81787719  0.26170533     0.17800
H2273       H  0.66467783  0.76260528  0.18317357     0.17800
F2274       F  0.60407062  0.79670436  0.16496145    -0.19900
C2275       C  0.83632258  0.79821666  0.24790919    -0.21300
C2276       C  0.82977609  0.77479230  0.23080521    -0.09400
C2277       C  0.85649594  0.77074164  0.20589947     0.29500
C2278       C  0.88702546  0.79088320  0.19724897    -0.21300
C2279       C  0.89209027  0.81498443  0.21371129    -0.09400
C2280       C  0.86726507  0.81806997  0.23963278     0.29500
F2281       F  0.87062970  0.84112087  0.25595423    -0.21100
H2282       H  0.81553054  0.80182203  0.26693666     0.17800
H2283       H  0.90628200  0.78783992  0.17744558     0.17800
F2284       F  0.85161484  0.74801164  0.18926755    -0.19900
C2285       C  0.89075829  0.93974840  0.24814903    -0.21300
C2286       C  0.90292864  0.93713078  0.21868650    -0.09400
C2287       C  0.88353363  0.95473071  0.19792229     0.29500
C2288       C  0.85061047  0.97351403  0.20634216    -0.21300
C2289       C  0.83513186  0.97418590  0.23532186    -0.09400
C2290       C  0.85673104  0.95787783  0.25640773     0.29500
F2291       F  0.84212527  0.95764316  0.28450306    -0.19900
H2292       H  0.90510057  0.92624966  0.26439906     0.17800
H2293       H  0.83485508  0.98611844  0.18984188     0.17800
F2294       F  0.89508611  0.95291745  0.16927553    -0.19900
C2295       C  0.62485936  0.92939674  0.24357367    -0.21300
C2296       C  0.60528702  0.93189529  0.21576670    -0.09400
C2297       C  0.61573448  0.95491210  0.19859452     0.29500
C2298       C  0.64681644  0.97411370  0.20854756    -0.21300
C2299       C  0.66892533  0.97026572  0.23525991    -0.09400
C2300       C  0.65664896  0.94825064  0.25314381     0.29500
F2301       F  0.67735928  0.94414743  0.27918184    -0.19900
H2302       H  0.61721027  0.91207501  0.25737724     0.17800
H2303       H  0.65526553  0.99127875  0.19475176     0.17800
F2304       F  0.59662685  0.95862291  0.17197493    -0.19900
C2305       C  0.60395420  0.71072584  0.50463381    -0.21300
C2306       C  0.58752401  0.72841996  0.48293681    -0.09400
C2307       C  0.60851919  0.72891770  0.45548321     0.29500
C2308       C  0.64221331  0.71000043  0.44899217    -0.21300
C2309       C  0.65650434  0.69107844  0.47010085    -0.09400
C2310       C  0.63843054  0.69226397  0.49837004     0.29500
F2311       F  0.65108984  0.67391835  0.51900772    -0.19900
H2312       H  0.58793342  0.70991549  0.02586974     0.17800
H2313       H  0.65587344  0.70930436  0.42705622     0.17800
F2314       F  0.59452864  0.74648195  0.43446343    -0.19900
C2315       C  0.91214031  0.70323603  0.99809506    -0.21300
C2316       C  0.92274520  0.72436265  0.47862828    -0.09400
C2317       C  0.89963550  0.72640653  0.45205633     0.29500
C2318       C  0.86857053  0.70638695  0.44426466    -0.21300
C2319       C  0.85936334  0.68442286  0.46316062    -0.09400
C2320       C  0.88053961  0.68351170  0.49061119     0.29500
F2321       F  0.87263058  0.66281328  0.00962551    -0.19900
H2322       H  0.92985092  0.70140827  0.01866891     0.17800
H2323       H  0.85202042  0.70790286  0.42326385     0.17800
F2324       F  0.90778364  0.74731566  0.43342718    -0.19900
C2325       C  0.59088807  0.80134010  0.99897428    -0.21300
C2326       C  0.58092073  0.77932489  0.01738453    -0.09400
C2327       C  0.60431576  0.77632403  0.04377472     0.29500
C2328       C  0.63475365  0.79633939  0.05254653    -0.21300
C2329       C  0.64323437  0.81915356  0.03472563    -0.09400
C2330       C  0.62199731  0.82101253  0.00735595     0.29500
F2331       F  0.62926357  0.84260343  0.48939614    -0.19900
H2332       H  0.57290474  0.80393292  0.47857276     0.17800
H2333       H  0.65141214  0.79413912  0.07344449     0.17800
F2334       F  0.59671289  0.75461004  0.06143787    -0.19900
C2335       C  0.89809240  0.79342068  0.49298277    -0.21300
C2336       C  0.91576615  0.77528471  0.01386675    -0.09400
C2337       C  0.89599115  0.77425961  0.04173255     0.29500
C2338       C  0.86251640  0.79304713  0.04941591    -0.21300
C2339       C  0.84705958  0.81243593  0.02912009    -0.09400
C2340       C  0.86387285  0.81177343  0.00046021     0.29500
F2341       F  0.85004697  0.83045444  0.48049210    -0.19900
H2342       H  0.91297229  0.79462945  0.47143604     0.17800
H2343       H  0.84976596  0.79314828  0.07158562     0.17800
F2344       F  0.91080797  0.75614148  0.06196451    -0.19900
C2345       C  0.00674759  0.77586413  0.07435213    -0.21300
C2346       C  0.99724717  0.78777464  0.04712622    -0.09400
C2347       C  0.48910660  0.81578383  0.04506868     0.29500
C2348       C  0.49023846  0.83173183  0.07018881    -0.21300
C2349       C  0.00098457  0.82001472  0.09733139    -0.09400
C2350       C  0.00962359  0.79201105  0.09936786     0.29500
F2351       F  0.01962225  0.78030091  0.12545678    -0.19900
H2352       H  0.01272696  0.75410755  0.07599629     0.17800
H2353       H  0.48342549  0.85338051  0.06842012     0.17800
F2354       F  0.48071670  0.82762427  0.01881907    -0.19900
C2355       C  0.64524349  0.72265964  0.29184495    -0.21300
C2356       C  0.66623974  0.72125953  0.26443511    -0.09400
C2357       C  0.65165620  0.70170248  0.24402588     0.29500
C2358       C  0.61870324  0.68277751  0.25167706    -0.21300
C2359       C  0.60045716  0.68288404  0.27989064    -0.09400
C2360       C  0.61309202  0.70335824  0.29972823     0.29500
F2361       F  0.59509279  0.70424798  0.32696379    -0.19900
H2362       H  0.65508781  0.73794507  0.30761692     0.17800
H2363       H  0.60924149  0.66711056  0.23615754     0.17800
F2364       F  0.67131117  0.69986384  0.21733689    -0.19900
C2365       C  0.87902341  0.68424437  0.25642608    -0.21300
C2366       C  0.89675641  0.68566096  0.28482388    -0.09400
C2367       C  0.88323949  0.70736914  0.30321443     0.29500
C2368       C  0.85078174  0.72608524  0.29384085    -0.21300
C2369       C  0.83123204  0.72346037  0.26613610    -0.09400
C2370       C  0.84640681  0.70280319  0.24722699     0.29500
F2371       F  0.82696356  0.69919634  0.22069815    -0.19900
H2372       H  0.88858231  0.66784533  0.24180315     0.17800
H2373       H  0.83909640  0.74172599  0.30876050     0.17800
F2374       F  0.90016850  0.71004102  0.33059957    -0.19900
C2375       C  0.87365790  0.56581105  0.25762679    -0.21300
C2376       C  0.89576897  0.56456283  0.28457720    -0.09400
C2377       C  0.88667702  0.54292005  0.30377903     0.29500
C2378       C  0.85499183  0.52312830  0.29628748    -0.21300
C2379       C  0.83067474  0.52534120  0.27014161    -0.09400
C2380       C  0.84103888  0.54650455  0.25053643     0.29500
F2381       F  0.81798272  0.54922013  0.22514685    -0.19900
H2382       H  0.88027680  0.58243492  0.24265073     0.17800
H2383       H  0.84832854  0.50671032  0.31141094     0.17800
F2384       F  0.90777010  0.54128421  0.32999540    -0.19900
C2385       C  0.61498317  0.54045387  0.30707091    -0.21300
C2386       C  0.60041164  0.56011104  0.28663975    -0.09400
C2387       C  0.61587211  0.55812539  0.25761049     0.29500
C2388       C  0.64800679  0.53855247  0.25005202    -0.21300
C2389       C  0.66531433  0.52058691  0.27111857    -0.09400
C2390       C  0.64689354  0.52072689  0.29935954     0.29500
F2391       F  0.66221836  0.00315016  0.31999413    -0.19900
H2392       H  0.60304724  0.54101843  0.32942203     0.17800
H2393       H  0.66191353  0.53876043  0.22817897     0.17800
F2394       F  0.60245314  0.57622987  0.23694331    -0.19900
C2395       C  0.50307746  0.70873388  0.39660709    -0.21300
C2396       C  0.01197440  0.68093187  0.40025625    -0.09400
C2397       C  0.02088987  0.67048188  0.42823087     0.29500
C2398       C  0.01793698  0.68739566  0.45265541    -0.21300
C2399       C  0.00755759  0.71503918  0.44916843    -0.09400
C2400       C  0.50150381  0.72586399  0.42097543     0.29500
F2401       F  0.49423897  0.75298424  0.41715118    -0.19900
H2402       H  0.49665742  0.71699740  0.37504044     0.17800
H2403       H  0.02399431  0.67907029  0.47423658     0.17800
F2404       F  0.03285373  0.64399405  0.43180279    -0.19900
C2405       C  0.86048373  0.55955668  0.49733422    -0.21300
C2406       C  0.84759993  0.56231029  0.46803302    -0.09400
C2407       C  0.86651399  0.54480947  0.44693433     0.29500
C2408       C  0.89930026  0.52577548  0.45493579    -0.21300
C2409       C  0.91544446  0.52491760  0.48376441    -0.09400
C2410       C  0.89465235  0.54136355  0.50511046     0.29500
F2411       F  0.91018835  0.54167314  0.53297338    -0.19900
H2412       H  0.84664823  0.57304877  0.51381449     0.17800
H2413       H  0.91452717  0.01315631  0.43818349     0.17800
F2414       F  0.85466644  0.54697349  0.41837124    -0.19900
C2415       C  0.60342454  0.52668443  0.45694086    -0.21300
C2416       C  0.58119550  0.52945597  0.48373776    -0.09400
C2417       C  0.59315969  0.55079556  0.50269564     0.29500
C2418       C  0.62494785  0.57006366  0.49412675    -0.21300
C2419       C  0.64481724  0.56854551  0.46634136    -0.09400
C2420       C  0.63471198  0.54615580  0.44811815     0.29500
F2421       F  0.65446680  0.54330235  0.42155815    -0.19900
H2422       H  0.59515388  0.01008465  0.44228161     0.17800
H2423       H  0.63236981  0.58691507  0.50866172     0.17800
F2424       F  0.57218934  0.55383119  0.52883231    -0.19900
C2425       C  0.50409460  0.54391212  0.40048627    -0.21300
C2426       C  0.99248347  0.57142781  0.40307413    -0.09400
C2427       C  0.98211074  0.58253246  0.43056564     0.29500
C2428       C  0.98561265  0.56647016  0.45557959    -0.21300
C2429       C  0.99789784  0.53900698  0.45308654    -0.09400
C2430       C  0.50613153  0.52759355  0.42537774     0.29500
F2431       F  0.51579786  0.50063604  0.42253658    -0.19900
H2432       H  0.51187391  0.53520202  0.37927556     0.17800
H2433       H  0.97787806  0.57518513  0.47679250     0.17800
F2434       F  0.96792062  0.60873332  0.43305889    -0.19900
C2435       C  0.89648756  0.97711594  0.04421747    -0.21300
C2436       C  0.92049945  0.97373605  0.01814706    -0.09400
C2437       C  0.91079834  0.95149825  0.49983972     0.29500
C2438       C  0.87931274  0.93209537  0.00834420    -0.21300
C2439       C  0.85754197  0.93434156  0.03544622    -0.09400
C2440       C  0.86547770  0.95747187  0.05300177     0.29500
F2441       F  0.84384988  0.96088521  0.07885142    -0.19900
H2442       H  0.90339965  0.99419897  0.05849498     0.17800
H2443       H  0.87358614  0.91458348  0.49436516     0.17800
F2444       F  0.93378408  0.94776381  0.47454009    -0.19900
C2445       C  0.63680441  0.95835974  0.05404578    -0.21300
C2446       C  0.65534245  0.94129413  0.03245166    -0.09400
C2447       C  0.64193033  0.94467855  0.00326226     0.29500
C2448       C  0.60743903  0.96298717  0.49635884    -0.21300
C2449       C  0.58640588  0.97850549  0.01836023    -0.09400
C2450       C  0.60330531  0.97726338  0.04699278     0.29500
F2451       F  0.58554842  0.99311755  0.06840652    -0.19900
H2452       H  0.64716915  0.95629433  0.07664459     0.17800
H2453       H  0.59500446  0.96369163  0.47412164     0.17800
F2454       F  0.65917535  0.92851954  0.48190335    -0.19900
C2455       C  0.98951882  0.97341686  0.07592392    -0.21300
C2456       C  0.00289510  0.96318691  0.04858537    -0.09400
C2457       C  0.51515403  0.93571042  0.04579262     0.29500
C2458       C  0.51437061  0.91879400  0.07030559    -0.21300
C2459       C  0.99980349  0.92887883  0.09753731    -0.09400
C2460       C  0.98712385  0.95628106  0.10017821     0.29500
F2461       F  0.97374441  0.96660621  0.12630397    -0.19900
H2462       H  0.98047552  0.99471815  0.07830132     0.17800
H2463       H  0.52438381  0.89766100  0.06793341     0.17800
F2464       F  0.52756224  0.92532957  0.01947194    -0.19900
C2465       C  0.00246903  0.98170616  0.52311749     0.02200
C2466       C  0.54293353  0.99220079  0.51164669     0.02200
C2467       C  0.54096125  0.51291506  0.99040279     0.02200
C2468       C  0.49915866  0.52131761  0.97907965     0.02200
C2469       C  0.95878041  0.51111306  0.99075536     0.02200
C2470       C  0.96069107  0.99037810  0.51190989     0.02200
O2471       O  0.52856380  0.60424083  0.87465559    -0.85400
O2472       O  0.56724012  0.58782132  0.82332340    -0.82400
C2473       C  0.57183446  0.58337461  0.79635700     0.98100
O2474       O  0.55397017  0.59938305  0.77788587    -0.82500
O2475       O  0.96404796  0.58865595  0.78167118    -0.85100
C2476       C  0.92604493  0.58671218  0.79329138     1.02600
O2477       O  0.91298297  0.60408275  0.81191509    -0.77900
O2478       O  0.96204550  0.59083989  0.86047351    -0.78100
C2479       C  0.99468947  0.58919953  0.87769128     1.02600
O2480       O  0.53957564  0.65983231  0.85759618    -0.85400
O2481       O  0.58578099  0.64409213  0.80876306    -0.82400
C2482       C  0.57147055  0.66042805  0.78952045     0.98100
O2483       O  0.53332513  0.65734544  0.77841528    -0.82500
O2484       O  0.94334570  0.64637782  0.77779304    -0.85100
C2485       C  0.92649280  0.66349352  0.79557621     1.02600
O2486       O  0.93292080  0.66087746  0.82263685    -0.77900
O2487       O  0.97407672  0.64708402  0.87415062    -0.78000
C2488       C  0.00806749  0.66224029  0.87561518     1.02500
Cr2489     Cr  0.55143902  0.62395711  0.83946028     1.93700
Cr2490     Cr  0.99878598  0.62302639  0.78183086     1.93200
Cr2491     Cr  0.94928995  0.62567145  0.84059571     1.39100
O2492       O  0.99985642  0.62421862  0.82057838    -1.23100
C2493       C  0.50466711  0.73311342  0.97489752     0.02200
C2494       C  0.54426718  0.74267888  0.98820821     0.02200
C2495       C  0.54127306  0.76248247  0.51020294     0.02200
C2496       C  0.99899176  0.77069662  0.52074570     0.02200
C2497       C  0.95920298  0.76131251  0.50751273     0.02200
C2498       C  0.96219847  0.74149796  0.98532177     0.02200
O2499       O  0.53021287  0.89333548  0.62532665    -0.85400
O2500       O  0.57060095  0.90686064  0.67743011    -0.82400
C2501       C  0.57558837  0.91001673  0.70462783     0.98100
O2502       O  0.55680423  0.89385873  0.72246529    -0.82500
O2503       O  0.96801816  0.90893952  0.72105304    -0.85100
C2504       C  0.93091830  0.91392746  0.70904625     1.02600
O2505       O  0.91605853  0.89856822  0.68913734    -0.77900
O2506       O  0.96686743  0.91069222  0.64064234    -0.78100
C2507       C  0.99909189  0.91052942  0.62282065     1.02600
O2508       O  0.53326764  0.83737295  0.64075625    -0.85400
O2509       O  0.58330961  0.84988629  0.68931561    -0.82400
C2510       C  0.56789113  0.83300955  0.70744426     0.98100
O2511       O  0.53022658  0.83697016  0.71911761    -0.82500
O2512       O  0.94157946  0.85226904  0.72188400    -0.85100
C2513       C  0.92207520  0.83707534  0.70345962     1.02600
O2514       O  0.92693999  0.84113799  0.67641673    -0.77900
O2515       O  0.96959142  0.85455440  0.62554248    -0.78000
C2516       C  0.00099579  0.83752737  0.62304141     1.02500
Cr2517     Cr  0.55046061  0.87204617  0.65992483     1.93700
Cr2518     Cr  0.99921050  0.87304616  0.71817483     1.93200
Cr2519     Cr  0.94862594  0.87604247  0.65967838     1.39100
O2520       O  0.99933523  0.87377032  0.67935631    -1.23100
C2521       C  0.74873693  0.51651077  0.77624130     0.02200
C2522       C  0.70818886  0.50631276  0.76456120     0.02200
C2523       C  0.70970311  0.98614514  0.74268250     0.02200
C2524       C  0.75134453  0.97777910  0.73105015     0.02200
C2525       C  0.79193120  0.98779786  0.74283814     0.02200
C2526       C  0.79045397  0.50824202  0.76450744     0.02200
O2527       O  0.71997721  0.91289889  0.60913055    -0.85400
O2528       O  0.66827966  0.90203330  0.56082022    -0.82400
C2529       C  0.68324896  0.91776290  0.54132882     0.98100
O2530       O  0.72038223  0.91290490  0.52928146    -0.82500
O2531       O  0.80871750  0.89694100  0.52708197    -0.85100
C2532       C  0.82807621  0.91212322  0.54559263     1.02600
O2533       O  0.82368902  0.90787563  0.57263604    -0.77900
O2534       O  0.78241222  0.89421766  0.62418509    -0.78100
C2535       C  0.75181989  0.91178131  0.62713040     1.02600
O2536       O  0.72092947  0.85638038  0.62357515    -0.85400
O2537       O  0.67815154  0.84460168  0.57224887    -0.82400
C2538       C  0.67320385  0.84103743  0.54514024     0.98100
O2539       O  0.69279236  0.85639886  0.52692916    -0.82500
O2540       O  0.78129534  0.84036102  0.52794051    -0.85100
C2541       C  0.81894453  0.83548584  0.53925325     1.02600
O2542       O  0.83420590  0.85083153  0.55903092    -0.77900
O2543       O  0.78328529  0.83830814  0.60734889    -0.78000
C2544       C  0.75142076  0.83862251  0.62540628     1.02500
Cr2545     Cr  0.70064733  0.87877050  0.58967071     1.93700
Cr2546     Cr  0.75080662  0.87660532  0.53083561     1.93200
Cr2547     Cr  0.80207966  0.87307934  0.58908029     1.39100
O2548       O  0.75115114  0.87614044  0.56971348    -1.23100
C2549       C  0.74843160  0.72920972  0.77055486     0.02200
C2550       C  0.78938897  0.73832970  0.75872962     0.02200
C2551       C  0.78914496  0.75818918  0.73657159     0.02200
C2552       C  0.74795390  0.76702152  0.72468102     0.02200
C2553       C  0.70684825  0.75747306  0.73620817     0.02200
C2554       C  0.70732627  0.73734813  0.75812689     0.02200
O2555       O  0.71786842  0.60755357  0.87697734    -0.85400
O2556       O  0.67798018  0.59494520  0.92890977    -0.82400
C2557       C  0.67425979  0.59078342  0.95599378     0.98100
O2558       O  0.69419825  0.60602734  0.97422749    -0.82500
O2559       O  0.78256780  0.59048632  0.97121321    -0.85100
C2560       C  0.81947641  0.58561427  0.95892258     1.02600
O2561       O  0.83399041  0.60123677  0.93921073    -0.77900
O2562       O  0.78057512  0.58922626  0.89201303    -0.78100
C2563       C  0.74790042  0.58958556  0.87459446     1.02600
O2564       O  0.71748935  0.66394722  0.89241289    -0.85400
O2565       O  0.66799691  0.65193129  0.94163609    -0.82400
C2566       C  0.68384410  0.66758631  0.96086633     0.98100
O2567       O  0.72146891  0.66279609  0.97216976    -0.82500
O2568       O  0.80992218  0.64723241  0.97239271    -0.85100
C2569       C  0.82895912  0.66234518  0.95364543     1.02600
O2570       O  0.82323889  0.65831519  0.92667350    -0.77900
O2571       O  0.77935810  0.64536079  0.87615046    -0.78000
C2572       C  0.74880353  0.66300891  0.87395786     1.02500
Cr2573     Cr  0.69922490  0.62942268  0.91169304     1.93700
Cr2574     Cr  0.75192842  0.62664727  0.96952309     1.93200
Cr2575     Cr  0.80054393  0.62377799  0.91027977     1.39100
O2576       O  0.75057142  0.62667828  0.93066361    -1.23100
C2577       C  0.75738159  0.68440255  0.79523712    -0.21300
C2578       C  0.74846546  0.71229432  0.79717791    -0.09400
C2579       C  0.74047048  0.72437204  0.82461594     0.29500
C2580       C  0.73906014  0.70823991  0.84977361    -0.21300
C2581       C  0.74829547  0.68028271  0.84783459    -0.09400
C2582       C  0.75848635  0.66860287  0.82046156     0.29500
F2583       F  0.76944811  0.64183764  0.81807029    -0.19900
H2584       H  0.76426633  0.67504171  0.77424417     0.17800
H2585       H  0.73214041  0.71761381  0.87075514     0.17800
F2586       F  0.73397201  0.75172505  0.82690252    -0.19900
C2587       C  0.76149246  0.77537933  0.67183372    -0.21300
C2588       C  0.74859847  0.78559414  0.69927825    -0.09400
C2589       C  0.73704104  0.81315190  0.70229367     0.29500
C2590       C  0.73742440  0.83012277  0.67788180    -0.21300
C2591       C  0.75094797  0.82003915  0.65046318    -0.09400
C2592       C  0.76351154  0.79260191  0.64759423     0.29500
F2593       F  0.77639319  0.78235802  0.62131063    -0.19900
H2594       H  0.77007889  0.75401911  0.66930177     0.17800
H2595       H  0.72791403  0.85133929  0.68048327     0.17800
F2596       F  0.72536286  0.82351020  0.72875768    -0.19900
C2597       C  0.74068233  0.97233905  0.67754061    -0.21300
C2598       C  0.75181108  0.96050811  0.70454651    -0.09400
C2599       C  0.76333976  0.93283246  0.70589439     0.29500
C2600       C  0.76413625  0.91729602  0.68032892    -0.21300
C2601       C  0.75186102  0.92895669  0.65338925    -0.09400
C2602       C  0.73961468  0.95654068  0.65216711     0.29500
F2603       F  0.72774818  0.96829030  0.62643984    -0.19900
H2604       H  0.73236202  0.99383334  0.67627929     0.17800
H2605       H  0.77345653  0.89595545  0.68163732     0.17800
F2606       F  0.77392234  0.92099552  0.73180954    -0.19900
C2607       C  0.73136100  0.56187784  0.79849348    -0.21300
C2608       C  0.74783366  0.53529437  0.80155510    -0.09400
C2609       C  0.76182158  0.52605636  0.82916863     0.29500
C2610       C  0.76259684  0.54392298  0.85290767    -0.21300
C2611       C  0.74607783  0.57052141  0.84987641    -0.09400
C2612       C  0.72853784  0.57898722  0.82274863     0.29500
F2613       F  0.70899971  0.60381375  0.81952203    -0.19900
H2614       H  0.71962981  0.56908446  0.77748018     0.17800
H2615       H  0.77495202  0.53680311  0.87381603     0.17800
F2616       F  0.77426757  0.49966839  0.83314985    -0.19900
C2617       C  0.60826998  0.80532999  0.74458391    -0.21300
C2618       C  0.59586653  0.80939431  0.71541488    -0.09400
C2619       C  0.61558098  0.79321626  0.69342914     0.29500
C2620       C  0.64881766  0.77420291  0.70050055    -0.21300
C2621       C  0.66425094  0.77197154  0.72937107    -0.09400
C2622       C  0.64264879  0.78707382  0.75152848     0.29500
F2623       F  0.65756553  0.78605542  0.77952524    -0.19900
H2624       H  0.59386343  0.81787451  0.76170526     0.17800
H2625       H  0.66466391  0.76259233  0.68317979     0.17800
F2626       F  0.60405417  0.79668815  0.66496427    -0.19900
C2627       C  0.83631016  0.79823374  0.74791003    -0.21300
C2628       C  0.82976423  0.77480630  0.73081062    -0.09400
C2629       C  0.85648758  0.77075005  0.70590771     0.29500
C2630       C  0.88702182  0.79088834  0.69725558    -0.21300
C2631       C  0.89208797  0.81499215  0.71371348    -0.09400
C2632       C  0.86725794  0.81808382  0.73963227     0.29500
F2633       F  0.87062427  0.84113708  0.75594975    -0.21100
H2634       H  0.81551579  0.80184316  0.76693558     0.17800
H2635       H  0.90628157  0.78784033  0.67745431     0.17800
F2636       F  0.85160661  0.74801696  0.68928060    -0.19900
C2637       C  0.89087121  0.93981496  0.74813308    -0.21300
C2638       C  0.90295515  0.93714509  0.71866023    -0.09400
C2639       C  0.88349013  0.95470476  0.69788488     0.29500
C2640       C  0.85057333  0.97349080  0.70630650    -0.21300
C2641       C  0.83515693  0.97419876  0.73530000    -0.09400
C2642       C  0.85684580  0.95794514  0.75639561     0.29500
F2643       F  0.84233827  0.95776633  0.78451334    -0.19900
H2644       H  0.90527967  0.92635482  0.76439484     0.17800
H2645       H  0.83477157  0.98606599  0.68979980     0.17800
F2646       F  0.89496688  0.95284857  0.66922802    -0.19900
C2647       C  0.62488134  0.92938814  0.74356311    -0.21300
C2648       C  0.60530893  0.93188765  0.71575615    -0.09400
C2649       C  0.61575236  0.95490701  0.69858690     0.29500
C2650       C  0.64682736  0.97411154  0.70854388    -0.21300
C2651       C  0.66893817  0.97026241  0.73525563    -0.09400
C2652       C  0.65666656  0.94824378  0.75313610     0.29500
F2653       F  0.67737711  0.94413912  0.77917381    -0.19900
H2654       H  0.61723514  0.91206465  0.75736476     0.17800
H2655       H  0.65527060  0.99127971  0.69475110     0.17800
F2656       F  0.59664650  0.95861806  0.67196684    -0.19900
C2657       C  0.60395967  0.71071238  0.00464943    -0.21300
C2658       C  0.58753295  0.72841027  0.98295482    -0.09400
C2659       C  0.60852773  0.72890964  0.95550121     0.29500
C2660       C  0.64221839  0.70999109  0.94900749    -0.21300
C2661       C  0.65650633  0.69106582  0.97011349    -0.09400
C2662       C  0.63843219  0.69224853  0.99838279     0.29500
F2663       F  0.65108841  0.67389937  0.01901772    -0.19900
H2664       H  0.58792729  0.70992959  0.52585383     0.17800
H2665       H  0.65587935  0.70929740  0.92707164     0.17800
F2666       F  0.59454098  0.74647774  0.93448410    -0.19900
C2667       C  0.91213711  0.70323553  0.49807529    -0.21300
C2668       C  0.92275428  0.72436161  0.97864734    -0.09400
C2669       C  0.89964651  0.72640664  0.95207500     0.29500
C2670       C  0.86857817  0.70638932  0.94428323    -0.21300
C2671       C  0.85936599  0.68442589  0.96317912    -0.09400
C2672       C  0.88053936  0.68351412  0.99063064     0.29500
F2673       F  0.87263644  0.66280976  0.50960571    -0.19900
H2674       H  0.92984952  0.70140833  0.51864852     0.17800
H2675       H  0.85203070  0.70790591  0.92328154     0.17800
F2676       F  0.90780094  0.74731422  0.93344505    -0.19900
C2677       C  0.59086328  0.80135247  0.49896308    -0.21300
C2678       C  0.58090344  0.77933191  0.51736766    -0.09400
C2679       C  0.60430700  0.77632407  0.54375370     0.29500
C2680       C  0.63474548  0.79633791  0.55252811    -0.21300
C2681       C  0.64321890  0.81915706  0.53471329    -0.09400
C2682       C  0.62197404  0.82102311  0.50734683     0.29500
F2683       F  0.62929255  0.84258794  0.98939951    -0.19900
H2684       H  0.57293547  0.80391563  0.97858102     0.17800
H2685       H  0.65141062  0.79413243  0.57342315     0.17800
F2686       F  0.59671215  0.75460468  0.56141063    -0.19900
C2687       C  0.89811492  0.79342251  0.99299368    -0.21300
C2688       C  0.91574979  0.77528236  0.51385304    -0.09400
C2689       C  0.89597922  0.77425364  0.54172001     0.29500
C2690       C  0.86250329  0.79303875  0.54940757    -0.21300
C2691       C  0.84704100  0.81242857  0.52911477    -0.09400
C2692       C  0.86384917  0.81176921  0.50045352     0.29500
F2693       F  0.85007597  0.83045732  0.98049583    -0.19900
H2694       H  0.91299825  0.79462857  0.97144781     0.17800
H2695       H  0.84975662  0.79313749  0.57157826     0.17800
F2696       F  0.91080250  0.75613486  0.56194929    -0.19900
C2697       C  0.00674908  0.77586118  0.57433602    -0.21300
C2698       C  0.99723180  0.78777353  0.54711339    -0.09400
C2699       C  0.48907836  0.81578114  0.54506130     0.29500
C2700       C  0.49021771  0.83172617  0.57018342    -0.21300
C2701       C  0.00098304  0.82000851  0.59732249    -0.09400
C2702       C  0.00963321  0.79200570  0.59935329     0.29500
F2703       F  0.01965139  0.78029386  0.62543811    -0.19900
H2704       H  0.01273676  0.75410525  0.57597610     0.17800
H2705       H  0.48339554  0.85337412  0.56841885     0.17800
F2706       F  0.48067061  0.82762397  0.51881538    -0.19900
C2707       C  0.64526579  0.72264872  0.79186330    -0.21300
C2708       C  0.66624000  0.72125832  0.76444584    -0.09400
C2709       C  0.65163318  0.70171271  0.74403092     0.29500
C2710       C  0.61867655  0.68279009  0.75168235    -0.21300
C2711       C  0.60045123  0.68288672  0.77990177    -0.09400
C2712       C  0.61311146  0.70334920  0.79974645     0.29500
F2713       F  0.59513243  0.70422983  0.82698800    -0.19900
H2714       H  0.65512959  0.73792552  0.80764006     0.17800
H2715       H  0.60919609  0.66713192  0.73615749     0.17800
F2716       F  0.67126865  0.69988225  0.71733514    -0.19900
C2717       C  0.87899785  0.68424608  0.75643284    -0.21300
C2718       C  0.89675278  0.68567308  0.78482395    -0.09400
C2719       C  0.88325758  0.70739071  0.80320840     0.29500
C2720       C  0.85079823  0.72610639  0.79383649    -0.21300
C2721       C  0.83122823  0.72347204  0.76613914    -0.09400
C2722       C  0.84638093  0.70280486  0.74723533     0.29500
F2723       F  0.82691623  0.69918955  0.72071452    -0.19900
H2724       H  0.88853928  0.66783898  0.74181526     0.17800
H2725       H  0.83912875  0.74175497  0.80875212     0.17800
F2726       F  0.90021037  0.71007257  0.83058612    -0.19900
C2727       C  0.87347302  0.56591456  0.75766997    -0.21300
C2728       C  0.89573392  0.56458734  0.78456280    -0.09400
C2729       C  0.88678360  0.54287317  0.80370103     0.29500
C2730       C  0.85509308  0.52308492  0.79620481    -0.21300
C2731       C  0.83064974  0.52536364  0.77011579    -0.09400
C2732       C  0.84086320  0.54660481  0.75057391     0.29500
F2733       F  0.81767076  0.54938837  0.72524589    -0.19900
H2734       H  0.87997785  0.58259589  0.74274575     0.17800
H2735       H  0.84852070  0.50661899  0.81128612     0.17800
F2736       F  0.90801107  0.54116755  0.82986572    -0.19900
C2737       C  0.61497891  0.54046366  0.80708157    -0.21300
C2738       C  0.60039213  0.56011511  0.78664871    -0.09400
C2739       C  0.61583781  0.55812414  0.75761634     0.29500
C2740       C  0.64797388  0.53855282  0.75005578    -0.21300
C2741       C  0.66529884  0.52059469  0.77112350    -0.09400
C2742       C  0.64689190  0.52073867  0.79936840     0.29500
F2743       F  0.66216689  0.00312391  0.81997619    -0.19900
H2744       H  0.60305471  0.54103220  0.82943527     0.17800
H2745       H  0.66186924  0.53875745  0.72817963     0.17800
F2746       F  0.60240290  0.57622216  0.73694704    -0.19900
C2747       C  0.50307924  0.70873817  0.89662281    -0.21300
C2748       C  0.01195836  0.68093419  0.90026641    -0.09400
C2749       C  0.02087086  0.67047985  0.92823960     0.29500
C2750       C  0.01792939  0.68739173  0.95266636    -0.21300
C2751       C  0.00756373  0.71503749  0.94918316    -0.09400
C2752       C  0.50151692  0.72586599  0.92099353     0.29500
F2753       F  0.49426803  0.75298831  0.91717301    -0.19900
H2754       H  0.49666592  0.71700585  0.87505719     0.17800
H2755       H  0.02398369  0.67906291  0.97424632     0.17800
F2756       F  0.03282214  0.64398957  0.93180788    -0.19900
C2757       C  0.86049084  0.55954547  0.99732628    -0.21300
C2758       C  0.84761506  0.56230790  0.96802465    -0.09400
C2759       C  0.86652815  0.54481031  0.94692272     0.29500
C2760       C  0.89930554  0.52577000  0.95492225    -0.21300
C2761       C  0.91544555  0.52490482  0.98375176    -0.09400
C2762       C  0.89465337  0.54134766  0.00510048     0.29500
F2763       F  0.91018497  0.54165051  0.03296448    -0.19900
H2764       H  0.84665456  0.57303449  0.01380917     0.17800
H2765       H  0.91453010  0.01316137  0.93819306     0.17800
F2766       F  0.85468887  0.54698350  0.91835897    -0.19900
C2767       C  0.60341408  0.52668362  0.95691729    -0.21300
C2768       C  0.58119758  0.52944663  0.98371984    -0.09400
C2769       C  0.59318014  0.55077609  0.00268588     0.29500
C2770       C  0.62497227  0.57004331  0.99412017    -0.21300
C2771       C  0.64482858  0.56853487  0.96633002    -0.09400
C2772       C  0.63470515  0.54615443  0.94809775     0.29500
F2773       F  0.65444571  0.54330927  0.92153219    -0.19900
H2774       H  0.59519608  0.01007190  0.94231902     0.17800
H2775       H  0.63240812  0.58688682  0.00866256     0.17800
F2776       F  0.57222508  0.55380285  0.02882890    -0.19900
C2777       C  0.50406437  0.54391307  0.90047361    -0.21300
C2778       C  0.99245273  0.57142766  0.90306955    -0.09400
C2779       C  0.98208937  0.58252777  0.93056455     0.29500
C2780       C  0.98560593  0.56646248  0.95557535    -0.21300
C2781       C  0.99789527  0.53900042  0.95307589    -0.09400
C2782       C  0.50611681  0.52759095  0.92536193     0.29500
F2783       F  0.51578724  0.50063461  0.92251410    -0.19900
H2784       H  0.51183933  0.53520728  0.87926014     0.17800
H2785       H  0.97787708  0.57517380  0.97679082     0.17800
F2786       F  0.96789481  0.60872719  0.93306438    -0.19900
C2787       C  0.89649886  0.97710040  0.54421542    -0.21300
C2788       C  0.92050376  0.97372179  0.51814188    -0.09400
C2789       C  0.91079786  0.95151259  0.99984391     0.29500
C2790       C  0.87931409  0.93208127  0.50834250    -0.21300
C2791       C  0.85754802  0.93432740  0.53544627    -0.09400
C2792       C  0.86549031  0.95745648  0.55300227     0.29500
F2793       F  0.84386909  0.96086936  0.57885435    -0.19900
H2794       H  0.90341480  0.99418260  0.55849310     0.17800
H2795       H  0.87358909  0.91459684  0.99436709     0.17800
F2796       F  0.93378896  0.94777814  0.97454635    -0.19900
C2797       C  0.63680854  0.95836055  0.55403444    -0.21300
C2798       C  0.65534821  0.94129457  0.53244150    -0.09400
C2799       C  0.64194031  0.94467849  0.50325126     0.29500
C2800       C  0.60742975  0.96298861  0.99637163    -0.21300
C2801       C  0.58641130  0.97850283  0.51834669    -0.09400
C2802       C  0.60330945  0.97726315  0.54697958     0.29500
F2803       F  0.58555022  0.99311789  0.56839201    -0.19900
H2804       H  0.64717100  0.95629564  0.57663376     0.17800
H2805       H  0.59499314  0.96369366  0.97413494     0.17800
F2806       F  0.65916149  0.92851927  0.98191331    -0.19900
C2807       C  0.98953358  0.97340699  0.57591345    -0.21300
C2808       C  0.00290512  0.96317686  0.54857409    -0.09400
C2809       C  0.51516389  0.93569931  0.54577920     0.29500
C2810       C  0.51438206  0.91878260  0.57029221    -0.21300
C2811       C  0.99981714  0.92886858  0.59752578    -0.09400
C2812       C  0.98713985  0.95627105  0.60016750     0.29500
F2813       F  0.97376242  0.96659602  0.62629383    -0.19900
H2814       H  0.98049165  0.99470844  0.57829150     0.17800
H2815       H  0.52439165  0.89764888  0.56791940     0.17800
F2816       F  0.52756655  0.92531830  0.51945743    -0.19900
loop_ 
_geom_bond_atom_site_label_1 
_geom_bond_atom_site_label_2 
_geom_bond_distance 
_geom_bond_site_symmetry_2 
_ccdc_geom_bond_type 
C1            C6   1.416       .  A
C1         C1410   1.418       .  A
C1          C344   1.477       .  S
C2         C1409   1.418       .  A
C2         C1059   1.407   1_554  A
C2          C337   1.495       .  S
C3            C4   1.415   1_455  A
C3         C1058   1.407   1_545  A
C3          C304   1.485       .  S
C4         C1413   1.414       .  A
C4         C1725   1.472       .  S
C5         C1412   1.414       .  A
C5         C1062   1.405   1_545  A
C5          C297   1.496       .  S
C6         C1061   1.405   1_554  A
C6          C324   1.483       .  S
O7          Cr25   2.000       .  S
O7         C1423   1.263   1_455  A
O8          Cr25   1.974       .  S
O8            C9   1.259       .  A
C9          C274   1.490       .  S
C9           O10   1.270       .  A
O10       Cr1434   2.023   1_455  S
O11         Cr26   1.982       .  S
O11          C12   1.259       .  A
C12         C264   1.471       .  S
C12          O13   1.265       .  A
O13         Cr27   2.007       .  S
O14         Cr27   1.971       .  S
O14          C15   1.258       .  A
C15         C314   1.453       .  S
C15        O1415   1.263       .  A
O16         Cr25   1.974       .  S
O16        C1432   1.257       .  A
O17         Cr25   2.002       .  S
O17          C18   1.264       .  A
C18         C247   1.471       .  S
C18          O19   1.259       .  A
O19       Cr1434   1.983   1_455  S
O20         Cr26   2.022       .  S
O20          C21   1.271       .  A
C21         C254   1.487       .  S
C21          O22   1.259       .  A
O22         Cr27   1.972       .  S
O23         Cr27   2.002       .  S
O23          C24   1.263       .  A
C24         C284   1.457       .  S
C24        O1424   1.257       .  A
Cr25       O1436   1.769   1_455  S
Cr26       O1418   2.023       .  S
Cr26       O1427   1.983       .  S
Cr26         O28   1.773       .  S
Cr27         O28   1.770       .  S
O28       Cr1433   1.769       .  S
C29          C30   1.414       .  A
C29        C1442   1.417   1_455  A
C29        C1695   1.474       .  S
C30         C383   1.400       .  A
C30         C194   1.489       .  S
C31         C382   1.400   1_554  A
C31        C1440   1.412   1_455  A
C31         C214   1.484       .  S
C32          C33   1.414       .  A
C32        C1439   1.412       .  A
C32         C234   1.468       .  S
C33         C386   1.407   1_554  A
C33         C224   1.496       .  S
C34        C1437   1.417       .  A
C34         C385   1.407       .  A
C34         C204   1.482       .  S
O35         Cr53   1.990       .  S
O35        C1451   1.260   1_455  A
O36         Cr53   1.979       .  S
O36          C37   1.262       .  A
C37         C184   1.485       .  S
C37          O38   1.270       .  A
O38       Cr1462   2.015   1_455  S
O39         Cr54   1.993       .  S
O39          C40   1.262       .  A
C40         C174   1.477       .  S
C40          O41   1.263       .  A
O41         Cr55   1.993       .  S
O42         Cr55   1.987       .  S
O42          C43   1.263       .  A
C43         C347   1.466       .  S
C43        O1443   1.260       .  A
O44         Cr53   1.981       .  S
O44        C1460   1.261       .  A
O45         Cr53   1.988       .  S
O45          C46   1.260       .  A
C46         C154   1.473       .  S
C46          O47   1.262       .  A
O47       Cr1462   1.995   1_455  S
O48         Cr54   2.013       .  S
O48          C49   1.268       .  A
C49         C167   1.484       .  S
C49          O50   1.261       .  A
O50         Cr55   1.985       .  S
O51         Cr55   1.983       .  S
O51          C52   1.260       .  A
C52         C237   1.455       .  S
C52        O1452   1.261       .  A
Cr53       O1464   1.771   1_455  S
Cr54       O1446   2.015       .  S
Cr54       O1455   1.995       .  S
Cr54         O56   1.776       .  S
Cr55         O56   1.768       .  S
O56       Cr1461   1.771       .  S
C57          C58   1.418       .  A
C57          C62   1.417       .  A
C57         C144   1.479       .  S
C58         C763   1.406   1_545  A
C58         C277   1.491       .  S
C59          C60   1.414       .  A
C59         C762   1.406       .  A
C59         C187   1.488       .  S
C60          C61   1.418       .  A
C60         C134   1.478       .  S
C61         C766   1.409       .  A
C61         C177   1.494       .  S
C62         C765   1.409   1_545  A
C62         C267   1.491       .  S
O63         Cr81   1.982       .  S
O63          C71   1.261       .  A
O64         Cr81   1.994       .  S
O64          C65   1.262       .  A
C65         C334   1.479       .  S
C65          O66   1.262       .  A
O66         Cr82   1.997       .  S
O67         Cr82   2.009       .  S
O67          C68   1.268       .  A
C68         C327   1.478       .  S
C68          O69   1.261       .  A
O69         Cr83   1.975       .  S
O70         Cr83   1.997       .  S
O70          C71   1.262       .  A
C71         C137   1.466       .  S
O72         Cr81   1.994       .  S
O72          C80   1.262       .  A
O73         Cr81   1.974       .  S
O73          C74   1.261       .  A
C74         C217   1.479       .  S
C74          O75   1.268       .  A
O75         Cr82   2.009       .  S
O76         Cr82   1.999       .  S
O76          C77   1.263       .  A
C77         C227   1.481       .  S
C77          O78   1.262       .  A
O78         Cr83   1.998       .  S
O79         Cr83   1.981       .  S
O79          C80   1.261       .  A
C80         C127   1.464       .  S
Cr81         O84   1.770       .  S
Cr82         O84   1.778       .  S
Cr83         O84   1.769       .  S
C85          C86   1.414       .  A
C85          C90   1.412       .  A
C85         C114   1.474       .  S
C86          C87   1.406       .  A
C86         C257   1.486       .  S
C87          C88   1.415       .  A
C87         C164   1.489       .  S
C88          C89   1.419       .  A
C88         C124   1.477       .  S
C89          C90   1.407       .  A
C89         C157   1.491       .  S
C90         C244   1.491       .  S
O91        Cr109   1.993       .  S
O91          C99   1.261       .  A
O92        Cr109   1.971       .  S
O92          C93   1.260       .  A
C93         C307   1.481       .  S
C93          O94   1.269       .  A
O94        Cr110   2.016       .  S
O95        Cr110   1.995       .  S
O95          C96   1.261       .  A
C96         C294   1.477       .  S
C96          O97   1.261       .  A
O97        Cr111   1.993       .  S
O98        Cr111   1.981       .  S
O98          C99   1.262       .  A
C99         C147   1.467       .  S
O100       Cr109   1.986       .  S
O100        C108   1.262       .  A
O101       Cr109   1.989       .  S
O101        C102   1.260       .  A
C102        C197   1.472       .  S
C102        O103   1.261       .  A
O103       Cr110   1.993       .  S
O104       Cr110   2.014       .  S
O104        C105   1.269       .  A
C105        C207   1.481       .  S
C105        O106   1.261       .  A
O106       Cr111   1.973       .  S
O107       Cr111   1.989       .  S
O107        C108   1.261       .  A
C108        C117   1.465       .  S
Cr109       O112   1.770       .  S
Cr110       O112   1.778       .  S
Cr111       O112   1.767       .  S
C113        C114   1.395       .  A
C113        C118   1.390       .  A
C113        H120   1.083       .  S
C114        C115   1.407       .  A
C115        C116   1.397       .  A
C115        F122   1.358       .  S
C116        C117   1.400       .  A
C116        H121   1.083       .  S
C117        C118   1.409       .  A
C118        F119   1.355       .  S
C123        C124   1.404       .  A
C123        C128   1.395       .  A
C123        H130   1.083       .  S
C124        C125   1.400       .  A
C125        C126   1.393       .  A
C125        F132   1.357       .  S
C126        C127   1.406       .  A
C126        H131   1.084       .  S
C127        C128   1.401       .  A
C128        F129   1.357       .  S
C133        C134   1.405       .  A
C133        C138   1.395       .  A
C133        H140   1.083       .  S
C134        C135   1.400       .  A
C135        C136   1.395       .  A
C135        F142   1.357       .  S
C136        C137   1.407       .  A
C136        H141   1.083       .  S
C137        C138   1.401       .  A
C138        F139   1.357       .  S
C143        C144   1.399       .  A
C143        C148   1.392       .  A
C143        H150   1.082       .  S
C144        C145   1.405       .  A
C145        C146   1.394       .  A
C145        F152   1.357   1_545  S
C146        C147   1.400       .  A
C146        H151   1.083       .  S
C147        C148   1.410       .  A
C148        F149   1.357       .  S
C153        C154   1.399       .  A
C153        C158   1.399       .  A
C153        H160   1.084       .  S
C154        C155   1.408       .  A
C155        C156   1.399       .  A
C155        F162   1.358       .  S
C156        C157   1.403       .  A
C156        H161   1.083       .  S
C157        C158   1.410       .  A
C158        F159   1.357       .  S
C163        C164   1.403       .  A
C163        C168   1.398       .  A
C163        H170   1.084       .  S
C164        C165   1.405       .  A
C165        C166   1.404       .  A
C165        F172   1.356       .  S
C166        C167   1.409       .  A
C166        H171   1.083       .  S
C167        C168   1.407       .  A
C168        F169   1.357       .  S
C173        C174   1.401       .  A
C173        C178   1.401       .  A
C173        H180   1.083       .  S
C174        C175   1.408       .  A
C175        C176   1.400       .  A
C175        F182   1.358       .  S
C176        C177   1.404       .  A
C176        H181   1.083       .  S
C177        C178   1.409       .  A
C178        F179   1.357       .  S
C183        C184   1.406       .  A
C183        C188   1.398       .  A
C183        H190   1.083       .  S
C184        C185   1.411       .  A
C185        C186   1.401       .  A
C185        F192   1.357       .  S
C186        C187   1.402       .  A
C186        H191   1.082       .  S
C187        C188   1.404       .  A
C188        F189   1.358       .  S
C193        C194   1.406       .  A
C193        C198   1.400       .  A
C193        H552   1.083       .  S
C194        C195   1.404       .  A
C195        C196   1.399       .  A
C195        F202   1.357       .  S
C196        C197   1.405       .  A
C196        H201   1.084       .  S
C197        C198   1.402       .  A
C198        F199   1.357       .  S
H200        C545   1.083       .  S
C203        C556   1.402       .  A
C203        C560   1.396       .  A
C203        H210   1.084   1_556  S
C204        C205   1.402       .  A
C204        C555   1.402       .  A
C205        C206   1.400       .  A
C205        F212   1.356       .  S
C206        C207   1.409       .  A
C206        H211   1.083       .  S
C207        C208   1.407       .  A
C208        C555   1.396       .  A
C208        F561   1.357       .  S
F209        C560   1.357   1_554  S
C213        C214   1.402   1_556  A
C213        C218   1.396   1_556  A
C213        H572   1.084       .  S
C214        C215   1.403       .  A
C215        C216   1.399       .  A
C215        F222   1.356       .  S
C216        C217   1.408       .  A
C216        H221   1.083       .  S
C217        C218   1.407       .  A
C218        F571   1.357   1_554  S
F219        C570   1.357       .  S
H220        C565   1.084       .  S
C223        C576   1.407       .  A
C223        C580   1.403       .  A
C223        H230   1.083       .  S
C224        C225   1.406       .  A
C224        C575   1.407   1_554  A
C225        C226   1.403       .  A
C225        F232   1.357       .  S
C226        C227   1.406       .  A
C226        H231   1.083       .  S
C227        C228   1.404       .  A
C228        C575   1.403   1_554  A
C228        F581   1.357   1_554  S
F229        C580   1.357       .  S
C233        C234   1.404       .  A
C233        C238   1.393       .  A
C233        H240   1.083       .  S
C234       C1643   1.397       .  A
C235        C236   1.389       .  A
C235       C1642   1.397       .  A
C235        F242   1.357       .  S
C236       C1645   1.405   1_655  A
C236        H241   1.083       .  S
C237        C238   1.399       .  A
C237       C1644   1.405       .  A
C238        F239   1.358       .  S
C243        C244   1.403       .  A
C243        C248   1.399       .  A
C243        H250   1.081       .  S
C244        C245   1.408       .  A
C245        C246   1.400       .  A
C245        F252   1.357       .  S
C246        C247   1.401       .  A
C246        H251   1.083       .  S
C247        C248   1.405       .  A
C248        F249   1.357       .  S
C253        C254   1.405       .  A
C253        C258   1.398       .  A
C253        H260   1.083       .  S
C254        C255   1.414       .  A
C255        C256   1.402       .  A
C255        F262   1.358       .  S
C256        C257   1.402       .  A
C256        H261   1.083       .  S
C257        C258   1.405       .  A
C258        F259   1.357       .  S
C263        C264   1.400       .  A
C263        C268   1.399       .  A
C263        H270   1.083       .  S
C264        C265   1.405       .  A
C265        C266   1.401       .  A
C265        F272   1.358       .  S
C266        C267   1.404       .  A
C266        H271   1.080       .  S
C267        C268   1.407       .  A
C268        F269   1.357       .  S
C273        C274   1.411       .  A
C273        C278   1.402       .  A
C273        H280   1.083       .  S
C274        C275   1.409       .  A
C275        C276   1.399       .  A
C275        F282   1.357       .  S
C276        C277   1.404       .  A
C276        H281   1.083       .  S
C277        C278   1.404       .  A
C278        F983   1.357       .  S
F279        C982   1.357       .  S
C283        C288   1.395       .  A
C283       C1692   1.398       .  A
C283        H290   1.084   1_455  S
C284        C285   1.404       .  A
C284       C1691   1.398       .  A
C285        C286   1.393       .  A
C285        F292   1.356       .  S
C286        C287   1.398       .  A
C286        H291   1.083       .  S
C287       C1696   1.406       .  A
C287       C1437   1.474       .  S
C288       C1695   1.406       .  A
C288        F289   1.358   1_455  S
C293        C294   1.401       .  A
C293        C298   1.401       .  A
C293        H300   1.083       .  S
C294        C295   1.408       .  A
C295        C296   1.401       .  A
C295        F302   1.358       .  S
C296        C297   1.405       .  A
C296       H1005   1.083       .  S
C297        C298   1.409       .  A
C298        F299   1.357       .  S
H301       C1000   1.083       .  S
C303        C304   1.400       .  A
C303        C308   1.398       .  A
C303       H1014   1.082       .  S
C304        C305   1.405       .  A
C305        C306   1.399       .  A
C305        F312   1.358       .  S
C306        C307   1.405       .  A
C306        H311   1.083       .  S
C307        C308   1.411       .  A
C308        F309   1.358       .  S
H310       C1007   1.082       .  S
C313        C318   1.393       .  A
C313       C1722   1.396   1_455  A
C313        H320   1.084       .  S
C314        C315   1.404       .  A
C314       C1721   1.396       .  A
C315        C316   1.393       .  A
C315        F322   1.356       .  S
C316        C317   1.399       .  A
C316        H321   1.084       .  S
C317       C1726   1.406       .  A
C317       C1412   1.472       .  S
C318       C1725   1.406   1_455  A
C318        F319   1.358       .  S
C323        C324   1.401       .  A
C323        C328   1.398       .  A
C323        H330   1.082       .  S
C324        C677   1.404   1_554  A
C325        C676   1.404       .  A
C325        C678   1.396       .  A
C325        F332   1.358       .  S
C326        C327   1.404       .  A
C326        C677   1.396   1_554  A
C326        H683   1.083   1_554  S
C327        C328   1.409       .  A
C328        F329   1.358       .  S
H331        C678   1.083       .  S
C333        C334   1.406       .  A
C333        C338   1.401       .  A
C333        H340   1.084       .  S
C334        C335   1.404       .  A
C335        C688   1.402   1_554  A
C335        F694   1.357   1_554  S
C336        C687   1.402       .  A
C336        C689   1.407       .  A
C336        H341   1.084       .  S
C337        C338   1.405       .  A
C337        C688   1.407   1_554  A
C338        F339   1.357       .  S
F342        C687   1.357       .  S
C343        C344   1.404       .  A
C343        C348   1.394       .  A
C343        H350   1.083       .  S
C344       C1753   1.400       .  A
C345        C346   1.395       .  A
C345       C1752   1.400       .  A
C345        F352   1.358       .  S
C346       C1755   1.408   1_455  A
C346        H351   1.083       .  S
C347        C348   1.399       .  A
C347       C1754   1.408       .  A
C348        F349   1.357       .  S
C353       C1762   1.418       .  A
C353        C358   1.416       .  A
C353        C696   1.477       .  S
C354       C1761   1.418       .  A
C354        C707   1.407       .  A
C354        C689   1.495       .  S
C355        C706   1.407   1_546  A
C355        C356   1.415   1_455  A
C355        C656   1.485       .  S
C356       C1765   1.414       .  A
C356       C2077   1.472       .  S
C357       C1764   1.414       .  A
C357        C710   1.405   1_546  A
C357        C649   1.496       .  S
C358        C709   1.405       .  A
C358        C676   1.483       .  S
O359       Cr377   2.000       .  S
O359       C1775   1.263   1_455  A
O360       Cr377   1.974       .  S
O360        C361   1.259       .  A
C361        C626   1.490       .  S
C361        O362   1.270       .  A
O362      Cr1786   2.023   1_455  S
O363       Cr378   1.982       .  S
O363        C364   1.259       .  A
C364        C616   1.471       .  S
C364        O365   1.265       .  A
O365       Cr379   2.006       .  S
O366       Cr379   1.971       .  S
O366        C367   1.258       .  A
C367        C666   1.453       .  S
C367       O1767   1.263       .  A
O368       Cr377   1.974       .  S
O368       C1784   1.257       .  A
O369       Cr377   2.002       .  S
O369        C370   1.264       .  A
C370        C599   1.471       .  S
C370        O371   1.259       .  A
O371      Cr1786   1.983   1_455  S
O372       Cr378   2.022       .  S
O372        C373   1.271       .  A
C373        C606   1.487       .  S
C373        O374   1.259       .  A
O374       Cr379   1.972       .  S
O375       Cr379   2.002       .  S
O375        C376   1.263       .  A
C376        C636   1.457       .  S
C376       O1776   1.257       .  A
Cr377      O1788   1.769   1_455  S
Cr378      O1770   2.023       .  S
Cr378      O1779   1.983       .  S
Cr378       O380   1.773       .  S
Cr379       O380   1.770       .  S
O380      Cr1785   1.769       .  S
C381        C382   1.414       .  A
C381       C1794   1.417   1_455  A
C381       C2047   1.474       .  S
C382        C546   1.489       .  S
C383       C1792   1.412   1_455  A
C383        C566   1.484       .  S
C384       C1791   1.412       .  A
C384        C385   1.414       .  A
C384        C586   1.468       .  S
C385        C576   1.496       .  S
C386       C1789   1.417       .  A
C386        C556   1.483       .  S
O387       Cr405   1.990       .  S
O387       C1803   1.260   1_455  A
O388       Cr405   1.979       .  S
O388        C389   1.262       .  A
C389        C536   1.485       .  S
C389        O390   1.270       .  A
O390      Cr1814   2.015   1_455  S
O391       Cr406   1.993       .  S
O391        C392   1.262       .  A
C392        C526   1.477       .  S
C392        O393   1.263       .  A
O393       Cr407   1.993       .  S
O394       Cr407   1.987       .  S
O394        C395   1.263       .  A
C395        C699   1.466       .  S
C395       O1795   1.260       .  A
O396       Cr405   1.981       .  S
O396       C1812   1.261       .  A
O397       Cr405   1.988       .  S
O397        C398   1.260       .  A
C398        C506   1.473       .  S
C398        O399   1.262       .  A
O399      Cr1814   1.995   1_455  S
O400       Cr406   2.013       .  S
O400        C401   1.268       .  A
C401        C519   1.484       .  S
C401        O402   1.261       .  A
O402       Cr407   1.985       .  S
O403       Cr407   1.983       .  S
O403        C404   1.260       .  A
C404        C589   1.455       .  S
C404       O1804   1.261       .  A
Cr405      O1816   1.771   1_455  S
Cr406      O1798   2.015       .  S
Cr406      O1807   1.995       .  S
Cr406       O408   1.776       .  S
Cr407       O408   1.768       .  S
O408      Cr1813   1.771       .  S
C409        C410   1.418       .  A
C409        C414   1.417       .  A
C409        C496   1.478       .  S
C410       C1115   1.406   1_545  A
C410        C629   1.491       .  S
C411       C1114   1.406       .  A
C411        C412   1.414       .  A
C411        C539   1.488       .  S
C412        C413   1.418       .  A
C412        C486   1.478       .  S
C413       C1118   1.409       .  A
C413        C529   1.494       .  S
C414       C1117   1.409   1_545  A
C414        C619   1.491       .  S
O415       Cr433   1.982       .  S
O415        C423   1.261       .  A
O416       Cr433   1.994       .  S
O416        C417   1.262       .  A
C417        C686   1.479       .  S
C417        O418   1.262       .  A
O418       Cr434   1.997       .  S
O419       Cr434   2.009       .  S
O419        C420   1.268       .  A
C420        C679   1.478       .  S
C420        O421   1.261       .  A
O421       Cr435   1.975       .  S
O422       Cr435   1.997       .  S
O422        C423   1.262       .  A
C423        C489   1.466       .  S
O424       Cr433   1.994       .  S
O424        C432   1.262       .  A
O425       Cr433   1.974       .  S
O425        C426   1.261       .  A
C426        C569   1.479       .  S
C426        O427   1.268       .  A
O427       Cr434   2.009       .  S
O428       Cr434   1.999       .  S
O428        C429   1.263       .  A
C429        C579   1.481       .  S
C429        O430   1.262       .  A
O430       Cr435   1.998       .  S
O431       Cr435   1.981       .  S
O431        C432   1.261       .  A
C432        C479   1.464       .  S
Cr433       O436   1.770       .  S
Cr434       O436   1.778       .  S
Cr435       O436   1.770       .  S
C437        C438   1.414       .  A
C437        C442   1.412       .  A
C437        C466   1.474       .  S
C438        C439   1.406       .  A
C438        C609   1.486       .  S
C439        C440   1.415       .  A
C439        C516   1.489       .  S
C440        C441   1.419       .  A
C440        C476   1.477       .  S
C441        C442   1.407       .  A
C441        C509   1.491       .  S
C442        C596   1.491       .  S
O443       Cr461   1.993       .  S
O443        C451   1.261       .  A
O444       Cr461   1.971       .  S
O444        C445   1.260       .  A
C445        C659   1.481       .  S
C445        O446   1.269       .  A
O446       Cr462   2.016       .  S
O447       Cr462   1.995       .  S
O447        C448   1.261       .  A
C448        C646   1.477       .  S
C448        O449   1.261       .  A
O449       Cr463   1.993       .  S
O450       Cr463   1.981       .  S
O450        C451   1.262       .  A
C451        C499   1.467       .  S
O452       Cr461   1.986       .  S
O452        C460   1.262       .  A
O453       Cr461   1.989       .  S
O453        C454   1.260       .  A
C454        C549   1.472       .  S
C454        O455   1.261       .  A
O455       Cr462   1.994       .  S
O456       Cr462   2.014       .  S
O456        C457   1.269       .  A
C457        C559   1.481       .  S
C457        O458   1.261       .  A
O458       Cr463   1.973       .  S
O459       Cr463   1.989       .  S
O459        C460   1.261       .  A
C460        C469   1.465       .  S
Cr461       O464   1.770       .  S
Cr462       O464   1.778       .  S
Cr463       O464   1.767       .  S
C465        C466   1.395       .  A
C465        C470   1.390       .  A
C465        H472   1.083       .  S
C466        C467   1.407       .  A
C467        C468   1.397       .  A
C467        F474   1.358       .  S
C468        C469   1.400       .  A
C468        H473   1.083       .  S
C469        C470   1.409       .  A
C470        F471   1.355       .  S
C475        C476   1.404       .  A
C475        C480   1.395       .  A
C475        H482   1.083       .  S
C476        C477   1.400       .  A
C477        C478   1.393       .  A
C477        F484   1.357       .  S
C478        C479   1.406       .  A
C478        H483   1.084       .  S
C479        C480   1.401       .  A
C480        F481   1.357       .  S
C485        C486   1.405       .  A
C485        C490   1.395       .  A
C485        H492   1.083       .  S
C486        C487   1.400       .  A
C487        C488   1.395       .  A
C487        F494   1.357       .  S
C488        C489   1.407       .  A
C488        H493   1.083       .  S
C489        C490   1.401       .  A
C490        F491   1.357       .  S
C495        C496   1.399       .  A
C495        C500   1.392       .  A
C495        H502   1.082       .  S
C496        C497   1.405       .  A
C497        C498   1.394       .  A
C497        F504   1.357   1_545  S
C498        C499   1.400       .  A
C498        H503   1.083       .  S
C499        C500   1.410       .  A
C500        F501   1.357       .  S
C505        C506   1.399       .  A
C505        C510   1.399       .  A
C505        H512   1.084       .  S
C506        C507   1.408       .  A
C507        C508   1.399       .  A
C507        F514   1.358       .  S
C508        C509   1.403       .  A
C508        H513   1.083       .  S
C509        C510   1.410       .  A
C510        F511   1.357       .  S
C515        C516   1.403       .  A
C515        C520   1.398       .  A
C515        H522   1.084       .  S
C516        C517   1.405       .  A
C517        C518   1.404       .  A
C517        F524   1.356       .  S
C518        C519   1.409       .  A
C518        H523   1.083       .  S
C519        C520   1.407       .  A
C520        F521   1.357       .  S
C525        C526   1.401       .  A
C525        C530   1.401       .  A
C525        H532   1.083       .  S
C526        C527   1.408       .  A
C527        C528   1.400       .  A
C527        F534   1.358       .  S
C528        C529   1.404       .  A
C528        H533   1.083       .  S
C529        C530   1.409       .  A
C530        F531   1.357       .  S
C535        C536   1.406       .  A
C535        C540   1.398       .  A
C535        H542   1.083       .  S
C536        C537   1.411       .  A
C537        C538   1.401       .  A
C537        F544   1.357       .  S
C538        C539   1.402       .  A
C538        H543   1.082       .  S
C539        C540   1.404       .  A
C540        F541   1.358       .  S
C545        C546   1.406   1_554  A
C545        C550   1.400   1_554  A
C546        C547   1.404       .  A
C547        C548   1.399       .  A
C547        F554   1.357       .  S
C548        C549   1.405       .  A
C548        H553   1.084       .  S
C549        C550   1.402       .  A
C550        F551   1.357   1_556  S
C555        H562   1.084       .  S
C556        C557   1.402       .  A
C557        C558   1.400       .  A
C557        F564   1.356       .  S
C558        C559   1.409       .  A
C558        H563   1.083       .  S
C559        C560   1.407       .  A
C565        C566   1.402       .  A
C565        C570   1.396       .  A
C566        C567   1.403       .  A
C567        C568   1.399       .  A
C567        F574   1.356       .  S
C568        C569   1.408       .  A
C568        H573   1.083       .  S
C569        C570   1.407       .  A
C575        H582   1.083       .  S
C576        C577   1.406       .  A
C577        C578   1.403       .  A
C577        F584   1.357       .  S
C578        C579   1.406       .  A
C578        H583   1.083       .  S
C579        C580   1.404       .  A
C585        C586   1.404       .  A
C585        C590   1.393       .  A
C585        H592   1.083       .  S
C586       C1995   1.397       .  A
C587       C1994   1.397       .  A
C587        C588   1.389       .  A
C587        F594   1.357       .  S
C588       C1997   1.405   1_655  A
C588        H593   1.083       .  S
C589       C1996   1.405       .  A
C589        C590   1.399       .  A
C590        F591   1.358       .  S
C595        C596   1.403       .  A
C595        C600   1.399       .  A
C595        H602   1.081       .  S
C596        C597   1.408       .  A
C597        C598   1.400       .  A
C597        F604   1.357       .  S
C598        C599   1.401       .  A
C598        H603   1.083       .  S
C599        C600   1.405       .  A
C600        F601   1.357       .  S
C605        C606   1.405       .  A
C605        C610   1.398       .  A
C605        H612   1.083       .  S
C606        C607   1.414       .  A
C607        C608   1.402       .  A
C607        F614   1.358       .  S
C608        C609   1.402       .  A
C608        H613   1.083       .  S
C609        C610   1.405       .  A
C610        F611   1.357       .  S
C615        C616   1.401       .  A
C615        C620   1.399       .  A
C615        H622   1.083       .  S
C616        C617   1.405       .  A
C617        C618   1.401       .  A
C617        F624   1.358       .  S
C618        C619   1.404       .  A
C618        H623   1.080       .  S
C619        C620   1.407       .  A
C620        F621   1.357       .  S
C625        C626   1.411       .  A
C625        C630   1.402       .  A
C625        H632   1.083       .  S
C626        C627   1.409       .  A
C627        C628   1.399       .  A
C627        F634   1.357       .  S
C628        C629   1.404       .  A
C628        H633   1.083       .  S
C629        C630   1.404       .  A
C630       F1335   1.357       .  S
F631       C1334   1.357       .  S
C635       C2044   1.398       .  A
C635        C640   1.395       .  A
C635        H642   1.084   1_455  S
C636       C2043   1.398       .  A
C636        C637   1.404       .  A
C637        C638   1.393       .  A
C637        F644   1.356       .  S
C638        C639   1.398       .  A
C638        H643   1.083       .  S
C639       C2048   1.406       .  A
C639       C1789   1.474       .  S
C640       C2047   1.406       .  A
C640        F641   1.358   1_455  S
C645        C646   1.401       .  A
C645        C650   1.401   1_556  A
C645        H652   1.083   1_556  S
C646        C647   1.408       .  A
C647        C648   1.401       .  A
C647        F654   1.358       .  S
C648        C649   1.405       .  A
C648       H1357   1.083       .  S
C649        C650   1.409   1_556  A
C650        F651   1.357       .  S
H653       C1352   1.083       .  S
C655        C656   1.400       .  A
C655        C660   1.398       .  A
C655       H1366   1.082       .  S
C656        C657   1.405   1_556  A
C657        C658   1.399   1_554  A
C657        F664   1.358       .  S
C658        C659   1.405       .  A
C658        H663   1.083   1_556  S
C659        C660   1.411       .  A
C660        F661   1.358       .  S
H662       C1359   1.082       .  S
C665       C2074   1.396   1_455  A
C665        C670   1.393       .  A
C665        H672   1.084       .  S
C666       C2073   1.396       .  A
C666        C667   1.404       .  A
C667        C668   1.393       .  A
C667        F674   1.356       .  S
C668        C669   1.399       .  A
C668        H673   1.084       .  S
C669       C2078   1.406       .  A
C669       C1764   1.472       .  S
C670       C2077   1.406   1_455  A
C670        F671   1.358       .  S
C675        C676   1.401       .  A
C675        C680   1.398       .  A
C675        H682   1.082       .  S
C677        F684   1.358       .  S
C678        C679   1.404       .  A
C679        C680   1.409       .  A
C680        F681   1.358       .  S
C685        C686   1.406       .  A
C685        C690   1.401       .  A
C685        H692   1.084       .  S
C686        C687   1.404       .  A
C688        H693   1.084       .  S
C689        C690   1.405       .  A
C690        F691   1.357       .  S
C695        C696   1.404       .  A
C695        C700   1.394       .  A
C695        H702   1.083       .  S
C696       C2105   1.400       .  A
C697       C2104   1.400       .  A
C697        C698   1.395       .  A
C697        F704   1.358       .  S
C698       C2107   1.408   1_455  A
C698        H703   1.083       .  S
C699       C2106   1.408       .  A
C699        C700   1.399       .  A
C700        F701   1.357       .  S
C705       C2114   1.418       .  A
C705        C710   1.416       .  A
C705       C1048   1.477       .  S
C706       C2113   1.418       .  A
C706       C1041   1.495       .  S
C707        C708   1.415   1_455  A
C707       C1008   1.485       .  S
C708       C2117   1.414       .  A
C708       C2429   1.472       .  S
C709       C2116   1.414       .  A
C709       C1001   1.496       .  S
C710       C1028   1.483       .  S
O711       Cr729   2.000       .  S
O711       C2127   1.263   1_455  A
O712       Cr729   1.974       .  S
O712        C713   1.259       .  A
C713        C978   1.490       .  S
C713        O714   1.271       .  A
O714      Cr2138   2.023   1_455  S
O715       Cr730   1.982       .  S
O715        C716   1.259       .  A
C716        C968   1.471       .  S
C716        O717   1.265       .  A
O717       Cr731   2.006       .  S
O718       Cr731   1.971       .  S
O718        C719   1.258       .  A
C719       C1018   1.453       .  S
C719       O2119   1.263       .  A
O720       Cr729   1.974       .  S
O720       C2136   1.257       .  A
O721       Cr729   2.002       .  S
O721        C722   1.264       .  A
C722        C951   1.471       .  S
C722        O723   1.259       .  A
O723      Cr2138   1.983   1_455  S
O724       Cr730   2.022       .  S
O724        C725   1.271       .  A
C725        C958   1.487       .  S
C725        O726   1.259       .  A
O726       Cr731   1.972       .  S
O727       Cr731   2.002       .  S
O727        C728   1.263       .  A
C728        C988   1.457       .  S
C728       O2128   1.257       .  A
Cr729      O2140   1.769   1_455  S
Cr730      O2122   2.023       .  S
Cr730      O2131   1.983       .  S
Cr730       O732   1.773       .  S
Cr731       O732   1.770       .  S
O732      Cr2137   1.769       .  S
C733        C734   1.414       .  A
C733       C2146   1.417   1_455  A
C733       C2399   1.474       .  S
C734       C1087   1.400       .  A
C734        C898   1.489       .  S
C735       C1086   1.400   1_554  A
C735       C2144   1.412   1_455  A
C735        C918   1.484       .  S
C736       C2143   1.412       .  A
C736        C737   1.414       .  A
C736        C938   1.468       .  S
C737       C1090   1.407   1_554  A
C737        C928   1.496       .  S
C738       C2141   1.417       .  A
C738       C1089   1.407       .  A
C738        C908   1.483       .  S
O739       Cr757   1.990       .  S
O739       C2155   1.260   1_455  A
O740       Cr757   1.979       .  S
O740        C741   1.262       .  A
C741        C888   1.485       .  S
C741        O742   1.270       .  A
O742      Cr2166   2.015   1_455  S
O743       Cr758   1.993       .  S
O743        C744   1.262       .  A
C744        C878   1.477       .  S
C744        O745   1.263       .  A
O745       Cr759   1.993       .  S
O746       Cr759   1.987       .  S
O746        C747   1.263       .  A
C747       C1051   1.466       .  S
C747       O2147   1.260       .  A
O748       Cr757   1.981       .  S
O748       C2164   1.261       .  A
O749       Cr757   1.988       .  S
O749        C750   1.260       .  A
C750        C858   1.473       .  S
C750        O751   1.262       .  A
O751      Cr2166   1.995   1_455  S
O752       Cr758   2.013       .  S
O752        C753   1.268       .  A
C753        C871   1.484       .  S
C753        O754   1.261       .  A
O754       Cr759   1.985       .  S
O755       Cr759   1.983       .  S
O755        C756   1.260       .  A
C756        C941   1.455       .  S
C756       O2156   1.261       .  A
Cr757      O2168   1.771   1_455  S
Cr758      O2150   2.015       .  S
Cr758      O2159   1.995       .  S
Cr758       O760   1.776       .  S
Cr759       O760   1.768       .  S
O760      Cr2165   1.771       .  S
C761        C762   1.418       .  A
C761        C766   1.417       .  A
C761        C848   1.478       .  S
C762        C981   1.491       .  S
C763        C764   1.415       .  A
C763        C891   1.488       .  S
C764        C765   1.418       .  A
C764        C838   1.478       .  S
C765        C881   1.494       .  S
C766        C971   1.491       .  S
O767       Cr785   1.982       .  S
O767        C775   1.261       .  A
O768       Cr785   1.994       .  S
O768        C769   1.262       .  A
C769       C1038   1.479       .  S
C769        O770   1.262       .  A
O770       Cr786   1.997       .  S
O771       Cr786   2.009       .  S
O771        C772   1.268       .  A
C772       C1031   1.478       .  S
C772        O773   1.261       .  A
O773       Cr787   1.975       .  S
O774       Cr787   1.997       .  S
O774        C775   1.262       .  A
C775        C841   1.466       .  S
O776       Cr785   1.994       .  S
O776        C784   1.262       .  A
O777       Cr785   1.974       .  S
O777        C778   1.261       .  A
C778        C921   1.479       .  S
C778        O779   1.268       .  A
O779       Cr786   2.009       .  S
O780       Cr786   1.999       .  S
O780        C781   1.263       .  A
C781        C931   1.481       .  S
C781        O782   1.262       .  A
O782       Cr787   1.998       .  S
O783       Cr787   1.981       .  S
O783        C784   1.261       .  A
C784        C831   1.464       .  S
Cr785       O788   1.770       .  S
Cr786       O788   1.778       .  S
Cr787       O788   1.770       .  S
C789        C790   1.414       .  A
C789        C794   1.412       .  A
C789        C818   1.474       .  S
C790        C791   1.406       .  A
C790        C961   1.486       .  S
C791        C792   1.415       .  A
C791        C868   1.489       .  S
C792        C793   1.419       .  A
C792        C828   1.477       .  S
C793        C794   1.407       .  A
C793        C861   1.491       .  S
C794        C948   1.491       .  S
O795       Cr813   1.993       .  S
O795        C803   1.261       .  A
O796       Cr813   1.972       .  S
O796        C797   1.260       .  A
C797       C1011   1.481       .  S
C797        O798   1.269       .  A
O798       Cr814   2.016       .  S
O799       Cr814   1.995       .  S
O799        C800   1.261       .  A
C800        C998   1.477       .  S
C800        O801   1.261       .  A
O801       Cr815   1.993       .  S
O802       Cr815   1.981       .  S
O802        C803   1.262       .  A
C803        C851   1.467       .  S
O804       Cr813   1.986       .  S
O804        C812   1.262       .  A
O805       Cr813   1.989       .  S
O805        C806   1.260       .  A
C806        C901   1.472       .  S
C806        O807   1.261       .  A
O807       Cr814   1.994       .  S
O808       Cr814   2.014       .  S
O808        C809   1.269       .  A
C809        C911   1.481       .  S
C809        O810   1.261       .  A
O810       Cr815   1.973       .  S
O811       Cr815   1.989       .  S
O811        C812   1.261       .  A
C812        C821   1.465       .  S
Cr813       O816   1.770       .  S
Cr814       O816   1.778       .  S
Cr815       O816   1.767       .  S
C817        C818   1.395       .  A
C817        C822   1.390       .  A
C817        H824   1.083       .  S
C818        C819   1.407       .  A
C819        C820   1.397       .  A
C819        F826   1.358       .  S
C820        C821   1.400       .  A
C820        H825   1.083       .  S
C821        C822   1.409       .  A
C822        F823   1.355       .  S
C827        C828   1.404       .  A
C827        C832   1.395       .  A
C827        H834   1.083       .  S
C828        C829   1.400       .  A
C829        C830   1.393       .  A
C829        F836   1.357       .  S
C830        C831   1.406       .  A
C830        H835   1.084       .  S
C831        C832   1.401       .  A
C832        F833   1.357       .  S
C837        C838   1.405       .  A
C837        C842   1.395       .  A
C837        H844   1.083       .  S
C838        C839   1.400       .  A
C839        C840   1.395       .  A
C839        F846   1.357       .  S
C840        C841   1.407       .  A
C840        H845   1.083       .  S
C841        C842   1.401       .  A
C842        F843   1.357       .  S
C847        C848   1.399       .  A
C847        C852   1.392       .  A
C847        H854   1.082       .  S
C848        C849   1.405       .  A
C849        C850   1.394       .  A
C849        F856   1.357       .  S
C850        C851   1.400       .  A
C850        H855   1.083       .  S
C851        C852   1.410       .  A
C852        F853   1.357       .  S
C857        C858   1.399       .  A
C857        C862   1.399       .  A
C857        H864   1.084       .  S
C858        C859   1.408       .  A
C859        C860   1.399       .  A
C859        F866   1.358       .  S
C860        C861   1.403       .  A
C860        H865   1.083       .  S
C861        C862   1.410       .  A
C862        F863   1.357       .  S
C867        C868   1.403       .  A
C867        C872   1.398       .  A
C867        H874   1.084       .  S
C868        C869   1.405       .  A
C869        C870   1.404       .  A
C869        F876   1.356       .  S
C870        C871   1.409       .  A
C870        H875   1.083       .  S
C871        C872   1.407       .  A
C872        F873   1.357       .  S
C877        C878   1.401       .  A
C877        C882   1.401       .  A
C877        H884   1.083       .  S
C878        C879   1.408       .  A
C879        C880   1.400       .  A
C879        F886   1.358       .  S
C880        C881   1.404       .  A
C880        H885   1.083       .  S
C881        C882   1.409       .  A
C882        F883   1.357       .  S
C887        C888   1.406       .  A
C887        C892   1.398       .  A
C887        H894   1.083       .  S
C888        C889   1.411       .  A
C889        C890   1.401       .  A
C889        F896   1.357       .  S
C890        C891   1.402       .  A
C890        H895   1.082       .  S
C891        C892   1.404       .  A
C892        F893   1.358       .  S
C897        C898   1.406       .  A
C897        C902   1.400       .  A
C897       H1256   1.083       .  S
C898        C899   1.404       .  A
C899        C900   1.399       .  A
C899        F906   1.357       .  S
C900        C901   1.405       .  A
C900        H905   1.084       .  S
C901        C902   1.402       .  A
C902        F903   1.357       .  S
H904       C1249   1.083       .  S
C907       C1260   1.402       .  A
C907       C1264   1.396       .  A
C907        H914   1.084   1_556  S
C908       C1259   1.402       .  A
C908        C909   1.402       .  A
C909        C910   1.400       .  A
C909        F916   1.356       .  S
C910        C911   1.409       .  A
C910        H915   1.083       .  S
C911        C912   1.407       .  A
C912       C1259   1.396       .  A
C912       F1265   1.357       .  S
F913       C1264   1.357   1_554  S
C917        C918   1.402   1_556  A
C917        C922   1.396   1_556  A
C917       H1276   1.084       .  S
C918        C919   1.403       .  A
C919        C920   1.399       .  A
C919        F926   1.356       .  S
C920        C921   1.408       .  A
C920        H925   1.083       .  S
C921        C922   1.407       .  A
C922       F1275   1.357   1_554  S
F923       C1274   1.357       .  S
H924       C1269   1.084       .  S
C927       C1280   1.407       .  A
C927       C1284   1.403       .  A
C927        H934   1.083       .  S
C928       C1279   1.407   1_554  A
C928        C929   1.406       .  A
C929        C930   1.403       .  A
C929        F936   1.357       .  S
C930        C931   1.406       .  A
C930        H935   1.083       .  S
C931        C932   1.404       .  A
C932       C1279   1.403   1_554  A
C932       F1285   1.357   1_554  S
F933       C1284   1.357       .  S
C937        C938   1.404       .  A
C937        C942   1.393       .  A
C937        H944   1.083       .  S
C938       C2347   1.397       .  A
C939       C2346   1.397       .  A
C939        C940   1.389       .  A
C939        F946   1.357       .  S
C940       C2349   1.405   1_655  A
C940        H945   1.083       .  S
C941       C2348   1.405       .  A
C941        C942   1.399       .  A
C942        F943   1.358       .  S
C947        C948   1.403       .  A
C947        C952   1.399       .  A
C947        H954   1.081       .  S
C948        C949   1.408       .  A
C949        C950   1.400       .  A
C949        F956   1.357       .  S
C950        C951   1.401       .  A
C950        H955   1.083       .  S
C951        C952   1.405       .  A
C952        F953   1.357       .  S
C957        C958   1.405       .  A
C957        C962   1.398       .  A
C957        H964   1.083       .  S
C958        C959   1.414       .  A
C959        C960   1.402       .  A
C959        F966   1.358       .  S
C960        C961   1.402       .  A
C960        H965   1.083       .  S
C961        C962   1.405       .  A
C962        F963   1.357       .  S
C967        C968   1.401       .  A
C967        C972   1.399       .  A
C967        H974   1.083       .  S
C968        C969   1.405       .  A
C969        C970   1.401       .  A
C969        F976   1.358       .  S
C970        C971   1.404       .  A
C970        H975   1.080       .  S
C971        C972   1.407       .  A
C972        F973   1.357       .  S
C977        C978   1.411       .  A
C977        C982   1.402       .  A
C977        H984   1.083       .  S
C978        C979   1.409       .  A
C979        C980   1.399       .  A
C979        F986   1.357       .  S
C980        C981   1.404       .  A
C980        H985   1.083       .  S
C981        C982   1.404       .  A
C987       C2396   1.398       .  A
C987        C992   1.395       .  A
C987        H994   1.084   1_455  S
C988       C2395   1.398       .  A
C988        C989   1.404       .  A
C989        C990   1.393       .  A
C989        F996   1.356       .  S
C990        C991   1.398       .  A
C990        H995   1.083       .  S
C991       C2400   1.406       .  A
C991       C2141   1.474       .  S
C992       C2399   1.406       .  A
C992        F993   1.358   1_455  S
C997        C998   1.401       .  A
C997       C1002   1.401       .  A
C997       H1004   1.083       .  S
C998        C999   1.408       .  A
C999       C1000   1.401       .  A
C999       F1006   1.358       .  S
C1000      C1001   1.405       .  A
C1001      C1002   1.409       .  A
C1002      F1003   1.357       .  S
C1007      C1008   1.400       .  A
C1007      C1012   1.398       .  A
C1008      C1009   1.405       .  A
C1009      C1010   1.399       .  A
C1009      F1016   1.358       .  S
C1010      C1011   1.405       .  A
C1010      H1015   1.083       .  S
C1011      C1012   1.411       .  A
C1012      F1013   1.358       .  S
C1017      C2426   1.396   1_455  A
C1017      C1022   1.393       .  A
C1017      H1024   1.084       .  S
C1018      C2425   1.396       .  A
C1018      C1019   1.404       .  A
C1019      C1020   1.393       .  A
C1019      F1026   1.356       .  S
C1020      C1021   1.399       .  A
C1020      H1025   1.084       .  S
C1021      C2430   1.406       .  A
C1021      C2116   1.472       .  S
C1022      C2429   1.406   1_455  A
C1022      F1023   1.358       .  S
C1027      C1028   1.401       .  A
C1027      C1032   1.398       .  A
C1027      H1034   1.082       .  S
C1028      C1381   1.404   1_554  A
C1029      C1380   1.404       .  A
C1029      C1382   1.396       .  A
C1029      F1036   1.358       .  S
C1030      C1381   1.396   1_554  A
C1030      C1031   1.404       .  A
C1030      H1387   1.083   1_554  S
C1031      C1032   1.409       .  A
C1032      F1033   1.358       .  S
H1035      C1382   1.083       .  S
C1037      C1038   1.406       .  A
C1037      C1042   1.401       .  A
C1037      H1044   1.084       .  S
C1038      C1039   1.404       .  A
C1039      C1392   1.402   1_554  A
C1039      F1398   1.357   1_554  S
C1040      C1391   1.402       .  A
C1040      C1393   1.407       .  A
C1040      H1045   1.084       .  S
C1041      C1392   1.407   1_554  A
C1041      C1042   1.405       .  A
C1042      F1043   1.357       .  S
F1046      C1391   1.357       .  S
C1047      C1048   1.404       .  A
C1047      C1052   1.394       .  A
C1047      H1054   1.083       .  S
C1048      C2457   1.400       .  A
C1049      C2456   1.400       .  A
C1049      C1050   1.395       .  A
C1049      F1056   1.358       .  S
C1050      C2459   1.408   1_455  A
C1050      H1055   1.083       .  S
C1051      C2458   1.408       .  A
C1051      C1052   1.399       .  A
C1052      F1053   1.357       .  S
C1057      C2466   1.418       .  A
C1057      C1062   1.416       .  A
C1057      C1400   1.477       .  S
C1058      C2465   1.418       .  A
C1058      C1393   1.495       .  S
C1059      C1060   1.415   1_455  A
C1059      C1360   1.485       .  S
C1060      C2469   1.414       .  A
C1060      C2781   1.472       .  S
C1061      C2468   1.414       .  A
C1061      C1353   1.496       .  S
C1062      C1380   1.483       .  S
O1063     Cr1081   2.000       .  S
O1063      C2479   1.263   1_455  A
O1064     Cr1081   1.974       .  S
O1064      C1065   1.259       .  A
C1065      C1330   1.490       .  S
C1065      O1066   1.270       .  A
O1066     Cr2490   2.023   1_455  S
O1067     Cr1082   1.982       .  S
O1067      C1068   1.259       .  A
C1068      C1320   1.471       .  S
C1068      O1069   1.265       .  A
O1069     Cr1083   2.006       .  S
O1070     Cr1083   1.971       .  S
O1070      C1071   1.258       .  A
C1071      C1370   1.453       .  S
C1071      O2471   1.263       .  A
O1072     Cr1081   1.974       .  S
O1072      C2488   1.257       .  A
O1073     Cr1081   2.002       .  S
O1073      C1074   1.264       .  A
C1074      C1303   1.471       .  S
C1074      O1075   1.259       .  A
O1075     Cr2490   1.983   1_455  S
O1076     Cr1082   2.022       .  S
O1076      C1077   1.271       .  A
C1077      C1310   1.487       .  S
C1077      O1078   1.259       .  A
O1078     Cr1083   1.972       .  S
O1079     Cr1083   2.002       .  S
O1079      C1080   1.263       .  A
C1080      C1340   1.457       .  S
C1080      O2480   1.257       .  A
Cr1081     O2492   1.769   1_455  S
Cr1082     O2474   2.023       .  S
Cr1082     O2483   1.983       .  S
Cr1082     O1084   1.773       .  S
Cr1083     O1084   1.770       .  S
O1084     Cr2489   1.769       .  S
C1085      C1086   1.414       .  A
C1085      C2498   1.417   1_455  A
C1085      C2751   1.474       .  S
C1086      C1250   1.489       .  S
C1087      C2496   1.412   1_455  A
C1087      C1270   1.484       .  S
C1088      C2495   1.412       .  A
C1088      C1089   1.414       .  A
C1088      C1290   1.468       .  S
C1089      C1280   1.496       .  S
C1090      C2493   1.417       .  A
C1090      C1260   1.483       .  S
O1091     Cr1109   1.990       .  S
O1091      C2507   1.260   1_455  A
O1092     Cr1109   1.980       .  S
O1092      C1093   1.262       .  A
C1093      C1240   1.485       .  S
C1093      O1094   1.270       .  A
O1094     Cr2518   2.015   1_455  S
O1095     Cr1110   1.993       .  S
O1095      C1096   1.262       .  A
C1096      C1230   1.477       .  S
C1096      O1097   1.263       .  A
O1097     Cr1111   1.993       .  S
O1098     Cr1111   1.987       .  S
O1098      C1099   1.263       .  A
C1099      C1403   1.466       .  S
C1099      O2499   1.260       .  A
O1100     Cr1109   1.981       .  S
O1100      C2516   1.261       .  A
O1101     Cr1109   1.988       .  S
O1101      C1102   1.260       .  A
C1102      C1210   1.473       .  S
C1102      O1103   1.262       .  A
O1103     Cr2518   1.995   1_455  S
O1104     Cr1110   2.013       .  S
O1104      C1105   1.268       .  A
C1105      C1223   1.484       .  S
C1105      O1106   1.261       .  A
O1106     Cr1111   1.985       .  S
O1107     Cr1111   1.983       .  S
O1107      C1108   1.260       .  A
C1108      C1293   1.455       .  S
C1108      O2508   1.261       .  A
Cr1109     O2520   1.771   1_455  S
Cr1110     O2502   2.015       .  S
Cr1110     O2511   1.995       .  S
Cr1110     O1112   1.776       .  S
Cr1111     O1112   1.768       .  S
O1112     Cr2517   1.771       .  S
C1113      C1114   1.418       .  A
C1113      C1118   1.417       .  A
C1113      C1200   1.478       .  S
C1114      C1333   1.491       .  S
C1115      C1116   1.415       .  A
C1115      C1243   1.488       .  S
C1116      C1117   1.418       .  A
C1116      C1190   1.478       .  S
C1117      C1233   1.494       .  S
C1118      C1323   1.491       .  S
O1119     Cr1137   1.982       .  S
O1119      C1127   1.261       .  A
O1120     Cr1137   1.994       .  S
O1120      C1121   1.262       .  A
C1121      C1390   1.479       .  S
C1121      O1122   1.262       .  A
O1122     Cr1138   1.997       .  S
O1123     Cr1138   2.009       .  S
O1123      C1124   1.268       .  A
C1124      C1383   1.478       .  S
C1124      O1125   1.261       .  A
O1125     Cr1139   1.975       .  S
O1126     Cr1139   1.997       .  S
O1126      C1127   1.262       .  A
C1127      C1193   1.466       .  S
O1128     Cr1137   1.994       .  S
O1128      C1136   1.262       .  A
O1129     Cr1137   1.974       .  S
O1129      C1130   1.261       .  A
C1130      C1273   1.479       .  S
C1130      O1131   1.268       .  A
O1131     Cr1138   2.009       .  S
O1132     Cr1138   1.999       .  S
O1132      C1133   1.263       .  A
C1133      C1283   1.481       .  S
C1133      O1134   1.262       .  A
O1134     Cr1139   1.998       .  S
O1135     Cr1139   1.981       .  S
O1135      C1136   1.261       .  A
C1136      C1183   1.464       .  S
Cr1137     O1140   1.770       .  S
Cr1138     O1140   1.778       .  S
Cr1139     O1140   1.769       .  S
C1141      C1142   1.414       .  A
C1141      C1146   1.412       .  A
C1141      C1170   1.474       .  S
C1142      C1143   1.406       .  A
C1142      C1313   1.486       .  S
C1143      C1144   1.415       .  A
C1143      C1220   1.489       .  S
C1144      C1145   1.419       .  A
C1144      C1180   1.477       .  S
C1145      C1146   1.407       .  A
C1145      C1213   1.491       .  S
C1146      C1300   1.491       .  S
O1147     Cr1165   1.993       .  S
O1147      C1155   1.261       .  A
O1148     Cr1165   1.972       .  S
O1148      C1149   1.260       .  A
C1149      C1363   1.481       .  S
C1149      O1150   1.269       .  A
O1150     Cr1166   2.016       .  S
O1151     Cr1166   1.995       .  S
O1151      C1152   1.261       .  A
C1152      C1350   1.477       .  S
C1152      O1153   1.261       .  A
O1153     Cr1167   1.993       .  S
O1154     Cr1167   1.981       .  S
O1154      C1155   1.262       .  A
C1155      C1203   1.467       .  S
O1156     Cr1165   1.986       .  S
O1156      C1164   1.262       .  A
O1157     Cr1165   1.989       .  S
O1157      C1158   1.260       .  A
C1158      C1253   1.472       .  S
C1158      O1159   1.261       .  A
O1159     Cr1166   1.994       .  S
O1160     Cr1166   2.014       .  S
O1160      C1161   1.269       .  A
C1161      C1263   1.481       .  S
C1161      O1162   1.261       .  A
O1162     Cr1167   1.973       .  S
O1163     Cr1167   1.989       .  S
O1163      C1164   1.261       .  A
C1164      C1173   1.465       .  S
Cr1165     O1168   1.770       .  S
Cr1166     O1168   1.778       .  S
Cr1167     O1168   1.767       .  S
C1169      C1170   1.395       .  A
C1169      C1174   1.390       .  A
C1169      H1176   1.083       .  S
C1170      C1171   1.407       .  A
C1171      C1172   1.397       .  A
C1171      F1178   1.358       .  S
C1172      C1173   1.400       .  A
C1172      H1177   1.083       .  S
C1173      C1174   1.409       .  A
C1174      F1175   1.355       .  S
C1179      C1180   1.404       .  A
C1179      C1184   1.395       .  A
C1179      H1186   1.083       .  S
C1180      C1181   1.400       .  A
C1181      C1182   1.393       .  A
C1181      F1188   1.357       .  S
C1182      C1183   1.406       .  A
C1182      H1187   1.084       .  S
C1183      C1184   1.401       .  A
C1184      F1185   1.357       .  S
C1189      C1190   1.405       .  A
C1189      C1194   1.395       .  A
C1189      H1196   1.083       .  S
C1190      C1191   1.400       .  A
C1191      C1192   1.395       .  A
C1191      F1198   1.357       .  S
C1192      C1193   1.407       .  A
C1192      H1197   1.083       .  S
C1193      C1194   1.401       .  A
C1194      F1195   1.357       .  S
C1199      C1200   1.399       .  A
C1199      C1204   1.392       .  A
C1199      H1206   1.082       .  S
C1200      C1201   1.405       .  A
C1201      C1202   1.394       .  A
C1201      F1208   1.357       .  S
C1202      C1203   1.400       .  A
C1202      H1207   1.083       .  S
C1203      C1204   1.410       .  A
C1204      F1205   1.357       .  S
C1209      C1210   1.399       .  A
C1209      C1214   1.399       .  A
C1209      H1216   1.084       .  S
C1210      C1211   1.408       .  A
C1211      C1212   1.399       .  A
C1211      F1218   1.358       .  S
C1212      C1213   1.403       .  A
C1212      H1217   1.083       .  S
C1213      C1214   1.410       .  A
C1214      F1215   1.357       .  S
C1219      C1220   1.403       .  A
C1219      C1224   1.398       .  A
C1219      H1226   1.084       .  S
C1220      C1221   1.405       .  A
C1221      C1222   1.404       .  A
C1221      F1228   1.356       .  S
C1222      C1223   1.409       .  A
C1222      H1227   1.083       .  S
C1223      C1224   1.407       .  A
C1224      F1225   1.357       .  S
C1229      C1230   1.401       .  A
C1229      C1234   1.401       .  A
C1229      H1236   1.083       .  S
C1230      C1231   1.408       .  A
C1231      C1232   1.400       .  A
C1231      F1238   1.358       .  S
C1232      C1233   1.404       .  A
C1232      H1237   1.083       .  S
C1233      C1234   1.409       .  A
C1234      F1235   1.357       .  S
C1239      C1240   1.406       .  A
C1239      C1244   1.398       .  A
C1239      H1246   1.083       .  S
C1240      C1241   1.411       .  A
C1241      C1242   1.401       .  A
C1241      F1248   1.357       .  S
C1242      C1243   1.402       .  A
C1242      H1247   1.082       .  S
C1243      C1244   1.404       .  A
C1244      F1245   1.358       .  S
C1249      C1250   1.406   1_554  A
C1249      C1254   1.400   1_554  A
C1250      C1251   1.404       .  A
C1251      C1252   1.399       .  A
C1251      F1258   1.357       .  S
C1252      C1253   1.405       .  A
C1252      H1257   1.084       .  S
C1253      C1254   1.402       .  A
C1254      F1255   1.357   1_556  S
C1259      H1266   1.084       .  S
C1260      C1261   1.402       .  A
C1261      C1262   1.400       .  A
C1261      F1268   1.356       .  S
C1262      C1263   1.409       .  A
C1262      H1267   1.083       .  S
C1263      C1264   1.407       .  A
C1269      C1270   1.402       .  A
C1269      C1274   1.396       .  A
C1270      C1271   1.403       .  A
C1271      C1272   1.399       .  A
C1271      F1278   1.356       .  S
C1272      C1273   1.408       .  A
C1272      H1277   1.083       .  S
C1273      C1274   1.407       .  A
C1279      H1286   1.083       .  S
C1280      C1281   1.406       .  A
C1281      C1282   1.403       .  A
C1281      F1288   1.357       .  S
C1282      C1283   1.406       .  A
C1282      H1287   1.083       .  S
C1283      C1284   1.404       .  A
C1289      C1290   1.404       .  A
C1289      C1294   1.393       .  A
C1289      H1296   1.083       .  S
C1290      C2699   1.397       .  A
C1291      C2698   1.397       .  A
C1291      C1292   1.389       .  A
C1291      F1298   1.357       .  S
C1292      C2701   1.405   1_655  A
C1292      H1297   1.083       .  S
C1293      C2700   1.405       .  A
C1293      C1294   1.399       .  A
C1294      F1295   1.358       .  S
C1299      C1300   1.403       .  A
C1299      C1304   1.399       .  A
C1299      H1306   1.081       .  S
C1300      C1301   1.408       .  A
C1301      C1302   1.400       .  A
C1301      F1308   1.357       .  S
C1302      C1303   1.401       .  A
C1302      H1307   1.083       .  S
C1303      C1304   1.405       .  A
C1304      F1305   1.357       .  S
C1309      C1310   1.405       .  A
C1309      C1314   1.398       .  A
C1309      H1316   1.083       .  S
C1310      C1311   1.414       .  A
C1311      C1312   1.402       .  A
C1311      F1318   1.358       .  S
C1312      C1313   1.402       .  A
C1312      H1317   1.083       .  S
C1313      C1314   1.405       .  A
C1314      F1315   1.357       .  S
C1319      C1320   1.400       .  A
C1319      C1324   1.399       .  A
C1319      H1326   1.083       .  S
C1320      C1321   1.405       .  A
C1321      C1322   1.401       .  A
C1321      F1328   1.358       .  S
C1322      C1323   1.404       .  A
C1322      H1327   1.080       .  S
C1323      C1324   1.407       .  A
C1324      F1325   1.357       .  S
C1329      C1330   1.411       .  A
C1329      C1334   1.402       .  A
C1329      H1336   1.083       .  S
C1330      C1331   1.409       .  A
C1331      C1332   1.399       .  A
C1331      F1338   1.357       .  S
C1332      C1333   1.404       .  A
C1332      H1337   1.083       .  S
C1333      C1334   1.404       .  A
C1339      C2748   1.398       .  A
C1339      C1344   1.395       .  A
C1339      H1346   1.084   1_455  S
C1340      C2747   1.398       .  A
C1340      C1341   1.404       .  A
C1341      C1342   1.393       .  A
C1341      F1348   1.356       .  S
C1342      C1343   1.398       .  A
C1342      H1347   1.083       .  S
C1343      C2752   1.406       .  A
C1343      C2493   1.474       .  S
C1344      C2751   1.406       .  A
C1344      F1345   1.358   1_455  S
C1349      C1350   1.401       .  A
C1349      C1354   1.401   1_556  A
C1349      H1356   1.083   1_556  S
C1350      C1351   1.408       .  A
C1351      C1352   1.401       .  A
C1351      F1358   1.358       .  S
C1352      C1353   1.405       .  A
C1353      C1354   1.409   1_556  A
C1354      F1355   1.357       .  S
C1359      C1360   1.400       .  A
C1359      C1364   1.399       .  A
C1360      C1361   1.405   1_556  A
C1361      C1362   1.399   1_554  A
C1361      F1368   1.358       .  S
C1362      C1363   1.405       .  A
C1362      H1367   1.083   1_556  S
C1363      C1364   1.411       .  A
C1364      F1365   1.358       .  S
C1369      C2778   1.396   1_455  A
C1369      C1374   1.393       .  A
C1369      H1376   1.084       .  S
C1370      C2777   1.396       .  A
C1370      C1371   1.404       .  A
C1371      C1372   1.393       .  A
C1371      F1378   1.356       .  S
C1372      C1373   1.399       .  A
C1372      H1377   1.084       .  S
C1373      C2782   1.406       .  A
C1373      C2468   1.472       .  S
C1374      C2781   1.406   1_455  A
C1374      F1375   1.358       .  S
C1379      C1380   1.401       .  A
C1379      C1384   1.398       .  A
C1379      H1386   1.082       .  S
C1381      F1388   1.358       .  S
C1382      C1383   1.404       .  A
C1383      C1384   1.409       .  A
C1384      F1385   1.358       .  S
C1389      C1390   1.406       .  A
C1389      C1394   1.401       .  A
C1389      H1396   1.084       .  S
C1390      C1391   1.404       .  A
C1392      H1397   1.084       .  S
C1393      C1394   1.405       .  A
C1394      F1395   1.357       .  S
C1399      C1400   1.404       .  A
C1399      C1404   1.394       .  A
C1399      H1406   1.083       .  S
C1400      C2809   1.400       .  A
C1401      C2808   1.400       .  A
C1401      C1402   1.395       .  A
C1401      F1408   1.358       .  S
C1402      C2811   1.408   1_455  A
C1402      H1407   1.083       .  S
C1403      C2810   1.408       .  A
C1403      C1404   1.399       .  A
C1404      F1405   1.357       .  S
C1409      C1414   1.416   1_455  A
C1409      C1752   1.477       .  S
C1410      C2467   1.407   1_554  A
C1410      C1745   1.495       .  S
C1411      C2466   1.407   1_545  A
C1411      C1412   1.415       .  A
C1411      C1712   1.485       .  S
C1413      C2470   1.405   1_545  A
C1413      C1705   1.496       .  S
C1414      C2469   1.405   1_554  A
C1414      C1732   1.483       .  S
O1415     Cr1433   2.000       .  S
O1416     Cr1433   1.974       .  S
O1416      C1417   1.259       .  A
C1417      C1682   1.490       .  S
C1417      O1418   1.270       .  A
O1419     Cr1434   1.982       .  S
O1419      C1420   1.259       .  A
C1420      C1672   1.471       .  S
C1420      O1421   1.265       .  A
O1421     Cr1435   2.007       .  S
O1422     Cr1435   1.971       .  S
O1422      C1423   1.258       .  A
C1423      C1722   1.453       .  S
O1424     Cr1433   1.974       .  S
O1425     Cr1433   2.002       .  S
O1425      C1426   1.264       .  A
C1426      C1655   1.471       .  S
C1426      O1427   1.259       .  A
O1428     Cr1434   2.022       .  S
O1428      C1429   1.271       .  A
C1429      C1662   1.487       .  S
C1429      O1430   1.259       .  A
O1430     Cr1435   1.972       .  S
O1431     Cr1435   2.002       .  S
O1431      C1432   1.263   1_655  A
C1432      C1692   1.457       .  S
Cr1434     O1436   1.773       .  S
Cr1435     O1436   1.770       .  S
C1437      C1438   1.414       .  A
C1438      C1791   1.400       .  A
C1438      C1602   1.489       .  S
C1439      C1790   1.400   1_554  A
C1439      C1622   1.484       .  S
C1440      C1441   1.414       .  A
C1440      C1642   1.468       .  S
C1441      C1794   1.407   1_554  A
C1441      C1632   1.496       .  S
C1442      C1793   1.407       .  A
C1442      C1612   1.482       .  S
O1443     Cr1461   1.990       .  S
O1444     Cr1461   1.980       .  S
O1444      C1445   1.262       .  A
C1445      C1592   1.485       .  S
C1445      O1446   1.270       .  A
O1447     Cr1462   1.993       .  S
O1447      C1448   1.262       .  A
C1448      C1582   1.477       .  S
C1448      O1449   1.263       .  A
O1449     Cr1463   1.993       .  S
O1450     Cr1463   1.987       .  S
O1450      C1451   1.263       .  A
C1451      C1755   1.466       .  S
O1452     Cr1461   1.981       .  S
O1453     Cr1461   1.988       .  S
O1453      C1454   1.260       .  A
C1454      C1562   1.473       .  S
C1454      O1455   1.262       .  A
O1456     Cr1462   2.013       .  S
O1456      C1457   1.268       .  A
C1457      C1575   1.484       .  S
C1457      O1458   1.261       .  A
O1458     Cr1463   1.985       .  S
O1459     Cr1463   1.983       .  S
O1459      C1460   1.260   1_655  A
C1460      C1645   1.455       .  S
Cr1462     O1464   1.776       .  S
Cr1463     O1464   1.768       .  S
C1465      C1466   1.418       .  A
C1465      C1470   1.417       .  A
C1465      C1552   1.479       .  S
C1466      C2171   1.406   1_545  A
C1466      C1685   1.491       .  S
C1467      C2170   1.406       .  A
C1467      C1468   1.414       .  A
C1467      C1595   1.488       .  S
C1468      C1469   1.418       .  A
C1468      C1542   1.478       .  S
C1469      C2174   1.409       .  A
C1469      C1585   1.494       .  S
C1470      C2173   1.409   1_545  A
C1470      C1675   1.491       .  S
O1471     Cr1489   1.982       .  S
O1471      C1479   1.261       .  A
O1472     Cr1489   1.994       .  S
O1472      C1473   1.262       .  A
C1473      C1742   1.479       .  S
C1473      O1474   1.262       .  A
O1474     Cr1490   1.997       .  S
O1475     Cr1490   2.009       .  S
O1475      C1476   1.268       .  A
C1476      C1735   1.478       .  S
C1476      O1477   1.261       .  A
O1477     Cr1491   1.975       .  S
O1478     Cr1491   1.997       .  S
O1478      C1479   1.262       .  A
C1479      C1545   1.466       .  S
O1480     Cr1489   1.994       .  S
O1480      C1488   1.262       .  A
O1481     Cr1489   1.974       .  S
O1481      C1482   1.261       .  A
C1482      C1625   1.479       .  S
C1482      O1483   1.268       .  A
O1483     Cr1490   2.009       .  S
O1484     Cr1490   1.999       .  S
O1484      C1485   1.263       .  A
C1485      C1635   1.481       .  S
C1485      O1486   1.262       .  A
O1486     Cr1491   1.998       .  S
O1487     Cr1491   1.981       .  S
O1487      C1488   1.261       .  A
C1488      C1535   1.464       .  S
Cr1489     O1492   1.770       .  S
Cr1490     O1492   1.778       .  S
Cr1491     O1492   1.769       .  S
C1493      C1494   1.414       .  A
C1493      C1498   1.412       .  A
C1493      C1522   1.474       .  S
C1494      C1495   1.406       .  A
C1494      C1665   1.486       .  S
C1495      C1496   1.415       .  A
C1495      C1572   1.489       .  S
C1496      C1497   1.419       .  A
C1496      C1532   1.477       .  S
C1497      C1498   1.407       .  A
C1497      C1565   1.491       .  S
C1498      C1652   1.491       .  S
O1499     Cr1517   1.993       .  S
O1499      C1507   1.261       .  A
O1500     Cr1517   1.971       .  S
O1500      C1501   1.260       .  A
C1501      C1715   1.481       .  S
C1501      O1502   1.269       .  A
O1502     Cr1518   2.016       .  S
O1503     Cr1518   1.995       .  S
O1503      C1504   1.261       .  A
C1504      C1702   1.477       .  S
C1504      O1505   1.261       .  A
O1505     Cr1519   1.993       .  S
O1506     Cr1519   1.981       .  S
O1506      C1507   1.262       .  A
C1507      C1555   1.467       .  S
O1508     Cr1517   1.986       .  S
O1508      C1516   1.262       .  A
O1509     Cr1517   1.989       .  S
O1509      C1510   1.260       .  A
C1510      C1605   1.472       .  S
C1510      O1511   1.261       .  A
O1511     Cr1518   1.993       .  S
O1512     Cr1518   2.014       .  S
O1512      C1513   1.269       .  A
C1513      C1615   1.481       .  S
C1513      O1514   1.261       .  A
O1514     Cr1519   1.973       .  S
O1515     Cr1519   1.989       .  S
O1515      C1516   1.261       .  A
C1516      C1525   1.465       .  S
Cr1517     O1520   1.770       .  S
Cr1518     O1520   1.778       .  S
Cr1519     O1520   1.767       .  S
C1521      C1522   1.395       .  A
C1521      C1526   1.390       .  A
C1521      H1528   1.083       .  S
C1522      C1523   1.407       .  A
C1523      C1524   1.397       .  A
C1523      F1530   1.358       .  S
C1524      C1525   1.400       .  A
C1524      H1529   1.083       .  S
C1525      C1526   1.409       .  A
C1526      F1527   1.355       .  S
C1531      C1532   1.404       .  A
C1531      C1536   1.395       .  A
C1531      H1538   1.083       .  S
C1532      C1533   1.400       .  A
C1533      C1534   1.393       .  A
C1533      F1540   1.357       .  S
C1534      C1535   1.406       .  A
C1534      H1539   1.084       .  S
C1535      C1536   1.401       .  A
C1536      F1537   1.357       .  S
C1541      C1542   1.405       .  A
C1541      C1546   1.395       .  A
C1541      H1548   1.083       .  S
C1542      C1543   1.400       .  A
C1543      C1544   1.395       .  A
C1543      F1550   1.357       .  S
C1544      C1545   1.407       .  A
C1544      H1549   1.083       .  S
C1545      C1546   1.401       .  A
C1546      F1547   1.357       .  S
C1551      C1552   1.399       .  A
C1551      C1556   1.392       .  A
C1551      H1558   1.082       .  S
C1552      C1553   1.405       .  A
C1553      C1554   1.394       .  A
C1553      F1560   1.357   1_545  S
C1554      C1555   1.400       .  A
C1554      H1559   1.083       .  S
C1555      C1556   1.410       .  A
C1556      F1557   1.357       .  S
C1561      C1562   1.399       .  A
C1561      C1566   1.399       .  A
C1561      H1568   1.084       .  S
C1562      C1563   1.408       .  A
C1563      C1564   1.399       .  A
C1563      F1570   1.358       .  S
C1564      C1565   1.403       .  A
C1564      H1569   1.083       .  S
C1565      C1566   1.410       .  A
C1566      F1567   1.357       .  S
C1571      C1572   1.403       .  A
C1571      C1576   1.398       .  A
C1571      H1578   1.084       .  S
C1572      C1573   1.405       .  A
C1573      C1574   1.404       .  A
C1573      F1580   1.356       .  S
C1574      C1575   1.409       .  A
C1574      H1579   1.083       .  S
C1575      C1576   1.407       .  A
C1576      F1577   1.357       .  S
C1581      C1582   1.401       .  A
C1581      C1586   1.401       .  A
C1581      H1588   1.083       .  S
C1582      C1583   1.408       .  A
C1583      C1584   1.400       .  A
C1583      F1590   1.358       .  S
C1584      C1585   1.404       .  A
C1584      H1589   1.083       .  S
C1585      C1586   1.409       .  A
C1586      F1587   1.357       .  S
C1591      C1592   1.406       .  A
C1591      C1596   1.398       .  A
C1591      H1598   1.083       .  S
C1592      C1593   1.411       .  A
C1593      C1594   1.401       .  A
C1593      F1600   1.357       .  S
C1594      C1595   1.402       .  A
C1594      H1599   1.082       .  S
C1595      C1596   1.404       .  A
C1596      F1597   1.358       .  S
C1601      C1602   1.406       .  A
C1601      C1606   1.400       .  A
C1601      H1960   1.083       .  S
C1602      C1603   1.404       .  A
C1603      C1604   1.399       .  A
C1603      F1610   1.357       .  S
C1604      C1605   1.405       .  A
C1604      H1609   1.084       .  S
C1605      C1606   1.402       .  A
C1606      F1607   1.357       .  S
H1608      C1953   1.083       .  S
C1611      C1964   1.402       .  A
C1611      C1968   1.396       .  A
C1611      H1618   1.084   1_556  S
C1612      C1963   1.402       .  A
C1612      C1613   1.402       .  A
C1613      C1614   1.400       .  A
C1613      F1620   1.356       .  S
C1614      C1615   1.409       .  A
C1614      H1619   1.083       .  S
C1615      C1616   1.407       .  A
C1616      C1963   1.396       .  A
C1616      F1969   1.357       .  S
F1617      C1968   1.357   1_554  S
C1621      C1622   1.402   1_556  A
C1621      C1626   1.396   1_556  A
C1621      H1980   1.084       .  S
C1622      C1623   1.403       .  A
C1623      C1624   1.399       .  A
C1623      F1630   1.356       .  S
C1624      C1625   1.408       .  A
C1624      H1629   1.083       .  S
C1625      C1626   1.407       .  A
C1626      F1979   1.357   1_554  S
F1627      C1978   1.357       .  S
H1628      C1973   1.084       .  S
C1631      C1984   1.407       .  A
C1631      C1988   1.403       .  A
C1631      H1638   1.083       .  S
C1632      C1983   1.407   1_554  A
C1632      C1633   1.406       .  A
C1633      C1634   1.403       .  A
C1633      F1640   1.357       .  S
C1634      C1635   1.406       .  A
C1634      H1639   1.083       .  S
C1635      C1636   1.404       .  A
C1636      C1983   1.403   1_554  A
C1636      F1989   1.357   1_554  S
F1637      C1988   1.357       .  S
C1641      C1642   1.404   1_455  A
C1641      C1646   1.393       .  A
C1641      H1648   1.083       .  S
C1643      C1644   1.389       .  A
C1643      F1650   1.357       .  S
C1644      H1649   1.083       .  S
C1645      C1646   1.399       .  A
C1646      F1647   1.358       .  S
C1651      C1652   1.403       .  A
C1651      C1656   1.399       .  A
C1651      H1658   1.081       .  S
C1652      C1653   1.408       .  A
C1653      C1654   1.400       .  A
C1653      F1660   1.357       .  S
C1654      C1655   1.401       .  A
C1654      H1659   1.083       .  S
C1655      C1656   1.405       .  A
C1656      F1657   1.357       .  S
C1661      C1662   1.405       .  A
C1661      C1666   1.398       .  A
C1661      H1668   1.083       .  S
C1662      C1663   1.414       .  A
C1663      C1664   1.402       .  A
C1663      F1670   1.358       .  S
C1664      C1665   1.402       .  A
C1664      H1669   1.083       .  S
C1665      C1666   1.405       .  A
C1666      F1667   1.357       .  S
C1671      C1672   1.400       .  A
C1671      C1676   1.399       .  A
C1671      H1678   1.083       .  S
C1672      C1673   1.405       .  A
C1673      C1674   1.401       .  A
C1673      F1680   1.358       .  S
C1674      C1675   1.404       .  A
C1674      H1679   1.080       .  S
C1675      C1676   1.407       .  A
C1676      F1677   1.357       .  S
C1681      C1682   1.411       .  A
C1681      C1686   1.402       .  A
C1681      H1688   1.083       .  S
C1682      C1683   1.409       .  A
C1683      C1684   1.399       .  A
C1683      F1690   1.357       .  S
C1684      C1685   1.404       .  A
C1684      H1689   1.083       .  S
C1685      C1686   1.404       .  A
C1686      F2391   1.357       .  S
F1687      C2390   1.357       .  S
C1691      C1696   1.395       .  A
C1691      H1698   1.084       .  S
C1692      C1693   1.404       .  A
C1693      C1694   1.393       .  A
C1693      F1700   1.356       .  S
C1694      C1695   1.398       .  A
C1694      H1699   1.083       .  S
C1696      F1697   1.358       .  S
C1701      C1702   1.401       .  A
C1701      C1706   1.401       .  A
C1701      H1708   1.083       .  S
C1702      C1703   1.408       .  A
C1703      C1704   1.401       .  A
C1703      F1710   1.358       .  S
C1704      C1705   1.405       .  A
C1704      H2413   1.083       .  S
C1705      C1706   1.409       .  A
C1706      F1707   1.357       .  S
H1709      C2408   1.083       .  S
C1711      C1712   1.400       .  A
C1711      C1716   1.398       .  A
C1711      H2422   1.082       .  S
C1712      C1713   1.405       .  A
C1713      C1714   1.399       .  A
C1713      F1720   1.358       .  S
C1714      C1715   1.405       .  A
C1714      H1719   1.083       .  S
C1715      C1716   1.411       .  A
C1716      F1717   1.358       .  S
H1718      C2415   1.082       .  S
C1721      C1726   1.393       .  A
C1721      H1728   1.084       .  S
C1722      C1723   1.404       .  A
C1723      C1724   1.393       .  A
C1723      F1730   1.356       .  S
C1724      C1725   1.399       .  A
C1724      H1729   1.084       .  S
C1726      F1727   1.358       .  S
C1731      C1732   1.401       .  A
C1731      C1736   1.398       .  A
C1731      H1738   1.082       .  S
C1732      C2085   1.404   1_554  A
C1733      C2084   1.404       .  A
C1733      C2086   1.396       .  A
C1733      F1740   1.358       .  S
C1734      C2085   1.396   1_554  A
C1734      C1735   1.404       .  A
C1734      H2091   1.083   1_554  S
C1735      C1736   1.409       .  A
C1736      F1737   1.358       .  S
H1739      C2086   1.083       .  S
C1741      C1742   1.406       .  A
C1741      C1746   1.401       .  A
C1741      H1748   1.084       .  S
C1742      C1743   1.404       .  A
C1743      C2096   1.402   1_554  A
C1743      F2102   1.357   1_554  S
C1744      C2095   1.402       .  A
C1744      C2097   1.407       .  A
C1744      H1749   1.084       .  S
C1745      C2096   1.407   1_554  A
C1745      C1746   1.405       .  A
C1746      F1747   1.357       .  S
F1750      C2095   1.357       .  S
C1751      C1752   1.404   1_655  A
C1751      C1756   1.394       .  A
C1751      H1758   1.083       .  S
C1753      C1754   1.395       .  A
C1753      F1760   1.358       .  S
C1754      H1759   1.083       .  S
C1755      C1756   1.399       .  A
C1756      F1757   1.357       .  S
C1761      C1766   1.416   1_455  A
C1761      C2104   1.477       .  S
C1762      C2115   1.407       .  A
C1762      C2097   1.495       .  S
C1763      C2114   1.407   1_546  A
C1763      C1764   1.415       .  A
C1763      C2064   1.485       .  S
C1765      C2118   1.405   1_546  A
C1765      C2057   1.496       .  S
C1766      C2117   1.405       .  A
C1766      C2084   1.483       .  S
O1767     Cr1785   2.000       .  S
O1768     Cr1785   1.974       .  S
O1768      C1769   1.259       .  A
C1769      C2034   1.490       .  S
C1769      O1770   1.270       .  A
O1771     Cr1786   1.982       .  S
O1771      C1772   1.259       .  A
C1772      C2024   1.471       .  S
C1772      O1773   1.265       .  A
O1773     Cr1787   2.006       .  S
O1774     Cr1787   1.971       .  S
O1774      C1775   1.258       .  A
C1775      C2074   1.453       .  S
O1776     Cr1785   1.974       .  S
O1777     Cr1785   2.002       .  S
O1777      C1778   1.264       .  A
C1778      C2007   1.471       .  S
C1778      O1779   1.259       .  A
O1780     Cr1786   2.022       .  S
O1780      C1781   1.271       .  A
C1781      C2014   1.487       .  S
C1781      O1782   1.259       .  A
O1782     Cr1787   1.972       .  S
O1783     Cr1787   2.002       .  S
O1783      C1784   1.263   1_655  A
C1784      C2044   1.457       .  S
Cr1786     O1788   1.773       .  S
Cr1787     O1788   1.770       .  S
C1789      C1790   1.414       .  A
C1790      C1954   1.489       .  S
C1791      C1974   1.484       .  S
C1792      C1793   1.414       .  A
C1792      C1994   1.468       .  S
C1793      C1984   1.496       .  S
C1794      C1964   1.483       .  S
O1795     Cr1813   1.990       .  S
O1796     Cr1813   1.979       .  S
O1796      C1797   1.262       .  A
C1797      C1944   1.485       .  S
C1797      O1798   1.270       .  A
O1799     Cr1814   1.993       .  S
O1799      C1800   1.262       .  A
C1800      C1934   1.477       .  S
C1800      O1801   1.263       .  A
O1801     Cr1815   1.993       .  S
O1802     Cr1815   1.987       .  S
O1802      C1803   1.263       .  A
C1803      C2107   1.466       .  S
O1804     Cr1813   1.981       .  S
O1805     Cr1813   1.988       .  S
O1805      C1806   1.260       .  A
C1806      C1914   1.473       .  S
C1806      O1807   1.262       .  A
O1808     Cr1814   2.013       .  S
O1808      C1809   1.268       .  A
C1809      C1927   1.484       .  S
C1809      O1810   1.261       .  A
O1810     Cr1815   1.985       .  S
O1811     Cr1815   1.983       .  S
O1811      C1812   1.260   1_655  A
C1812      C1997   1.455       .  S
Cr1814     O1816   1.776       .  S
Cr1815     O1816   1.768       .  S
C1817      C1818   1.418       .  A
C1817      C1822   1.417       .  A
C1817      C1904   1.478       .  S
C1818      C2523   1.406   1_545  A
C1818      C2037   1.491       .  S
C1819      C2522   1.406       .  A
C1819      C1820   1.414       .  A
C1819      C1947   1.488       .  S
C1820      C1821   1.418       .  A
C1820      C1894   1.478       .  S
C1821      C2526   1.409       .  A
C1821      C1937   1.494       .  S
C1822      C2525   1.409   1_545  A
C1822      C2027   1.491       .  S
O1823     Cr1841   1.982       .  S
O1823      C1831   1.261       .  A
O1824     Cr1841   1.994       .  S
O1824      C1825   1.262       .  A
C1825      C2094   1.479       .  S
C1825      O1826   1.262       .  A
O1826     Cr1842   1.997       .  S
O1827     Cr1842   2.009       .  S
O1827      C1828   1.268       .  A
C1828      C2087   1.478       .  S
C1828      O1829   1.261       .  A
O1829     Cr1843   1.975       .  S
O1830     Cr1843   1.997       .  S
O1830      C1831   1.262       .  A
C1831      C1897   1.466       .  S
O1832     Cr1841   1.994       .  S
O1832      C1840   1.262       .  A
O1833     Cr1841   1.974       .  S
O1833      C1834   1.261       .  A
C1834      C1977   1.479       .  S
C1834      O1835   1.268       .  A
O1835     Cr1842   2.009       .  S
O1836     Cr1842   1.999       .  S
O1836      C1837   1.263       .  A
C1837      C1987   1.481       .  S
C1837      O1838   1.262       .  A
O1838     Cr1843   1.998       .  S
O1839     Cr1843   1.981       .  S
O1839      C1840   1.261       .  A
C1840      C1887   1.464       .  S
Cr1841     O1844   1.770       .  S
Cr1842     O1844   1.778       .  S
Cr1843     O1844   1.770       .  S
C1845      C1846   1.414       .  A
C1845      C1850   1.412       .  A
C1845      C1874   1.474       .  S
C1846      C1847   1.406       .  A
C1846      C2017   1.486       .  S
C1847      C1848   1.415       .  A
C1847      C1924   1.489       .  S
C1848      C1849   1.419       .  A
C1848      C1884   1.477       .  S
C1849      C1850   1.407       .  A
C1849      C1917   1.491       .  S
C1850      C2004   1.491       .  S
O1851     Cr1869   1.993       .  S
O1851      C1859   1.261       .  A
O1852     Cr1869   1.971       .  S
O1852      C1853   1.260       .  A
C1853      C2067   1.481       .  S
C1853      O1854   1.269       .  A
O1854     Cr1870   2.016       .  S
O1855     Cr1870   1.995       .  S
O1855      C1856   1.261       .  A
C1856      C2054   1.477       .  S
C1856      O1857   1.261       .  A
O1857     Cr1871   1.993       .  S
O1858     Cr1871   1.981       .  S
O1858      C1859   1.262       .  A
C1859      C1907   1.467       .  S
O1860     Cr1869   1.986       .  S
O1860      C1868   1.262       .  A
O1861     Cr1869   1.989       .  S
O1861      C1862   1.260       .  A
C1862      C1957   1.472       .  S
C1862      O1863   1.261       .  A
O1863     Cr1870   1.994       .  S
O1864     Cr1870   2.014       .  S
O1864      C1865   1.269       .  A
C1865      C1967   1.481       .  S
C1865      O1866   1.261       .  A
O1866     Cr1871   1.973       .  S
O1867     Cr1871   1.989       .  S
O1867      C1868   1.261       .  A
C1868      C1877   1.465       .  S
Cr1869     O1872   1.770       .  S
Cr1870     O1872   1.778       .  S
Cr1871     O1872   1.767       .  S
C1873      C1874   1.395       .  A
C1873      C1878   1.390       .  A
C1873      H1880   1.083       .  S
C1874      C1875   1.407       .  A
C1875      C1876   1.397       .  A
C1875      F1882   1.358       .  S
C1876      C1877   1.400       .  A
C1876      H1881   1.083       .  S
C1877      C1878   1.409       .  A
C1878      F1879   1.355       .  S
C1883      C1884   1.404       .  A
C1883      C1888   1.395       .  A
C1883      H1890   1.083       .  S
C1884      C1885   1.400       .  A
C1885      C1886   1.393       .  A
C1885      F1892   1.357       .  S
C1886      C1887   1.406       .  A
C1886      H1891   1.084       .  S
C1887      C1888   1.401       .  A
C1888      F1889   1.357       .  S
C1893      C1894   1.405       .  A
C1893      C1898   1.395       .  A
C1893      H1900   1.083       .  S
C1894      C1895   1.400       .  A
C1895      C1896   1.395       .  A
C1895      F1902   1.357       .  S
C1896      C1897   1.407       .  A
C1896      H1901   1.083       .  S
C1897      C1898   1.401       .  A
C1898      F1899   1.357       .  S
C1903      C1904   1.399       .  A
C1903      C1908   1.392       .  A
C1903      H1910   1.082       .  S
C1904      C1905   1.405       .  A
C1905      C1906   1.394       .  A
C1905      F1912   1.357   1_545  S
C1906      C1907   1.400       .  A
C1906      H1911   1.083       .  S
C1907      C1908   1.410       .  A
C1908      F1909   1.357       .  S
C1913      C1914   1.399       .  A
C1913      C1918   1.399       .  A
C1913      H1920   1.084       .  S
C1914      C1915   1.408       .  A
C1915      C1916   1.399       .  A
C1915      F1922   1.358       .  S
C1916      C1917   1.403       .  A
C1916      H1921   1.083       .  S
C1917      C1918   1.410       .  A
C1918      F1919   1.357       .  S
C1923      C1924   1.403       .  A
C1923      C1928   1.398       .  A
C1923      H1930   1.084       .  S
C1924      C1925   1.405       .  A
C1925      C1926   1.404       .  A
C1925      F1932   1.356       .  S
C1926      C1927   1.409       .  A
C1926      H1931   1.083       .  S
C1927      C1928   1.407       .  A
C1928      F1929   1.357       .  S
C1933      C1934   1.401       .  A
C1933      C1938   1.401       .  A
C1933      H1940   1.083       .  S
C1934      C1935   1.408       .  A
C1935      C1936   1.400       .  A
C1935      F1942   1.358       .  S
C1936      C1937   1.404       .  A
C1936      H1941   1.083       .  S
C1937      C1938   1.409       .  A
C1938      F1939   1.357       .  S
C1943      C1944   1.406       .  A
C1943      C1948   1.398       .  A
C1943      H1950   1.083       .  S
C1944      C1945   1.411       .  A
C1945      C1946   1.401       .  A
C1945      F1952   1.357       .  S
C1946      C1947   1.402       .  A
C1946      H1951   1.082       .  S
C1947      C1948   1.404       .  A
C1948      F1949   1.358       .  S
C1953      C1954   1.406   1_554  A
C1953      C1958   1.400   1_554  A
C1954      C1955   1.404       .  A
C1955      C1956   1.399       .  A
C1955      F1962   1.357       .  S
C1956      C1957   1.405       .  A
C1956      H1961   1.084       .  S
C1957      C1958   1.402       .  A
C1958      F1959   1.357   1_556  S
C1963      H1970   1.084       .  S
C1964      C1965   1.402       .  A
C1965      C1966   1.400       .  A
C1965      F1972   1.356       .  S
C1966      C1967   1.409       .  A
C1966      H1971   1.083       .  S
C1967      C1968   1.407       .  A
C1973      C1974   1.402       .  A
C1973      C1978   1.396       .  A
C1974      C1975   1.403       .  A
C1975      C1976   1.399       .  A
C1975      F1982   1.356       .  S
C1976      C1977   1.408       .  A
C1976      H1981   1.083       .  S
C1977      C1978   1.407       .  A
C1983      H1990   1.083       .  S
C1984      C1985   1.406       .  A
C1985      C1986   1.403       .  A
C1985      F1992   1.357       .  S
C1986      C1987   1.406       .  A
C1986      H1991   1.083       .  S
C1987      C1988   1.404       .  A
C1993      C1994   1.404   1_455  A
C1993      C1998   1.393       .  A
C1993      H2000   1.083       .  S
C1995      C1996   1.389       .  A
C1995      F2002   1.357       .  S
C1996      H2001   1.083       .  S
C1997      C1998   1.399       .  A
C1998      F1999   1.358       .  S
C2003      C2004   1.403       .  A
C2003      C2008   1.399       .  A
C2003      H2010   1.081       .  S
C2004      C2005   1.408       .  A
C2005      C2006   1.400       .  A
C2005      F2012   1.357       .  S
C2006      C2007   1.401       .  A
C2006      H2011   1.083       .  S
C2007      C2008   1.405       .  A
C2008      F2009   1.357       .  S
C2013      C2014   1.405       .  A
C2013      C2018   1.398       .  A
C2013      H2020   1.083       .  S
C2014      C2015   1.414       .  A
C2015      C2016   1.402       .  A
C2015      F2022   1.358       .  S
C2016      C2017   1.402       .  A
C2016      H2021   1.083       .  S
C2017      C2018   1.405       .  A
C2018      F2019   1.357       .  S
C2023      C2024   1.400       .  A
C2023      C2028   1.399       .  A
C2023      H2030   1.083       .  S
C2024      C2025   1.405       .  A
C2025      C2026   1.401       .  A
C2025      F2032   1.358       .  S
C2026      C2027   1.404       .  A
C2026      H2031   1.080       .  S
C2027      C2028   1.407       .  A
C2028      F2029   1.357       .  S
C2033      C2034   1.411       .  A
C2033      C2038   1.402       .  A
C2033      H2040   1.083       .  S
C2034      C2035   1.409       .  A
C2035      C2036   1.399       .  A
C2035      F2042   1.357       .  S
C2036      C2037   1.404       .  A
C2036      H2041   1.083       .  S
C2037      C2038   1.404       .  A
C2038      F2743   1.357       .  S
F2039      C2742   1.357       .  S
C2043      C2048   1.395       .  A
C2043      H2050   1.084       .  S
C2044      C2045   1.404       .  A
C2045      C2046   1.393       .  A
C2045      F2052   1.356       .  S
C2046      C2047   1.398       .  A
C2046      H2051   1.083       .  S
C2048      F2049   1.358       .  S
C2053      C2054   1.401       .  A
C2053      C2058   1.401   1_556  A
C2053      H2060   1.083   1_556  S
C2054      C2055   1.408       .  A
C2055      C2056   1.401       .  A
C2055      F2062   1.358       .  S
C2056      C2057   1.405       .  A
C2056      H2765   1.083       .  S
C2057      C2058   1.409   1_556  A
C2058      F2059   1.357       .  S
H2061      C2760   1.083       .  S
C2063      C2064   1.400       .  A
C2063      C2068   1.398       .  A
C2063      H2774   1.082       .  S
C2064      C2065   1.405   1_556  A
C2065      C2066   1.399   1_554  A
C2065      F2072   1.358       .  S
C2066      C2067   1.405       .  A
C2066      H2071   1.083   1_556  S
C2067      C2068   1.411       .  A
C2068      F2069   1.358       .  S
H2070      C2767   1.082       .  S
C2073      C2078   1.393       .  A
C2073      H2080   1.084       .  S
C2074      C2075   1.404       .  A
C2075      C2076   1.393       .  A
C2075      F2082   1.356       .  S
C2076      C2077   1.399       .  A
C2076      H2081   1.084       .  S
C2078      F2079   1.358       .  S
C2083      C2084   1.401       .  A
C2083      C2088   1.398       .  A
C2083      H2090   1.082       .  S
C2085      F2092   1.358       .  S
C2086      C2087   1.404       .  A
C2087      C2088   1.409       .  A
C2088      F2089   1.358       .  S
C2093      C2094   1.406       .  A
C2093      C2098   1.401       .  A
C2093      H2100   1.084       .  S
C2094      C2095   1.404       .  A
C2096      H2101   1.084       .  S
C2097      C2098   1.405       .  A
C2098      F2099   1.357       .  S
C2103      C2104   1.404   1_655  A
C2103      C2108   1.394       .  A
C2103      H2110   1.083       .  S
C2105      C2106   1.395       .  A
C2105      F2112   1.358       .  S
C2106      H2111   1.083       .  S
C2107      C2108   1.399       .  A
C2108      F2109   1.357       .  S
C2113      C2118   1.416   1_455  A
C2113      C2456   1.477       .  S
C2114      C2449   1.495       .  S
C2115      C2116   1.415       .  A
C2115      C2416   1.485       .  S
C2117      C2409   1.496       .  S
C2118      C2436   1.483       .  S
O2119     Cr2137   2.000       .  S
O2120     Cr2137   1.974       .  S
O2120      C2121   1.259       .  A
C2121      C2386   1.490       .  S
C2121      O2122   1.271       .  A
O2123     Cr2138   1.982       .  S
O2123      C2124   1.259       .  A
C2124      C2376   1.471       .  S
C2124      O2125   1.265       .  A
O2125     Cr2139   2.006       .  S
O2126     Cr2139   1.971       .  S
O2126      C2127   1.258       .  A
C2127      C2426   1.453       .  S
O2128     Cr2137   1.974       .  S
O2129     Cr2137   2.002       .  S
O2129      C2130   1.264       .  A
C2130      C2359   1.471       .  S
C2130      O2131   1.259       .  A
O2132     Cr2138   2.022       .  S
O2132      C2133   1.271       .  A
C2133      C2366   1.487       .  S
C2133      O2134   1.259       .  A
O2134     Cr2139   1.972       .  S
O2135     Cr2139   2.002       .  S
O2135      C2136   1.263   1_655  A
C2136      C2396   1.457       .  S
Cr2138     O2140   1.773       .  S
Cr2139     O2140   1.770       .  S
C2141      C2142   1.414       .  A
C2142      C2495   1.400       .  A
C2142      C2306   1.489       .  S
C2143      C2494   1.400   1_554  A
C2143      C2326   1.484       .  S
C2144      C2145   1.414       .  A
C2144      C2346   1.468       .  S
C2145      C2498   1.407   1_554  A
C2145      C2336   1.496       .  S
C2146      C2497   1.407       .  A
C2146      C2316   1.483       .  S
O2147     Cr2165   1.990       .  S
O2148     Cr2165   1.979       .  S
O2148      C2149   1.262       .  A
C2149      C2296   1.485       .  S
C2149      O2150   1.270       .  A
O2151     Cr2166   1.993       .  S
O2151      C2152   1.262       .  A
C2152      C2286   1.477       .  S
C2152      O2153   1.263       .  A
O2153     Cr2167   1.993       .  S
O2154     Cr2167   1.987       .  S
O2154      C2155   1.263       .  A
C2155      C2459   1.466       .  S
O2156     Cr2165   1.981       .  S
O2157     Cr2165   1.988       .  S
O2157      C2158   1.260       .  A
C2158      C2266   1.473       .  S
C2158      O2159   1.262       .  A
O2160     Cr2166   2.013       .  S
O2160      C2161   1.268       .  A
C2161      C2279   1.484       .  S
C2161      O2162   1.261       .  A
O2162     Cr2167   1.985       .  S
O2163     Cr2167   1.983       .  S
O2163      C2164   1.260   1_655  A
C2164      C2349   1.455       .  S
Cr2166     O2168   1.776       .  S
Cr2167     O2168   1.768       .  S
C2169      C2170   1.418       .  A
C2169      C2174   1.417       .  A
C2169      C2256   1.478       .  S
C2170      C2389   1.491       .  S
C2171      C2172   1.415       .  A
C2171      C2299   1.488       .  S
C2172      C2173   1.418       .  A
C2172      C2246   1.478       .  S
C2173      C2289   1.494       .  S
C2174      C2379   1.491       .  S
O2175     Cr2193   1.982       .  S
O2175      C2183   1.261       .  A
O2176     Cr2193   1.994       .  S
O2176      C2177   1.262       .  A
C2177      C2446   1.479       .  S
C2177      O2178   1.262       .  A
O2178     Cr2194   1.997       .  S
O2179     Cr2194   2.009       .  S
O2179      C2180   1.268       .  A
C2180      C2439   1.478       .  S
C2180      O2181   1.261       .  A
O2181     Cr2195   1.975       .  S
O2182     Cr2195   1.997       .  S
O2182      C2183   1.262       .  A
C2183      C2249   1.466       .  S
O2184     Cr2193   1.994       .  S
O2184      C2192   1.262       .  A
O2185     Cr2193   1.974       .  S
O2185      C2186   1.261       .  A
C2186      C2329   1.479       .  S
C2186      O2187   1.268       .  A
O2187     Cr2194   2.009       .  S
O2188     Cr2194   1.999       .  S
O2188      C2189   1.263       .  A
C2189      C2339   1.481       .  S
C2189      O2190   1.262       .  A
O2190     Cr2195   1.998       .  S
O2191     Cr2195   1.981       .  S
O2191      C2192   1.261       .  A
C2192      C2239   1.464       .  S
Cr2193     O2196   1.770       .  S
Cr2194     O2196   1.778       .  S
Cr2195     O2196   1.770       .  S
C2197      C2198   1.414       .  A
C2197      C2202   1.412       .  A
C2197      C2226   1.474       .  S
C2198      C2199   1.406       .  A
C2198      C2369   1.486       .  S
C2199      C2200   1.415       .  A
C2199      C2276   1.489       .  S
C2200      C2201   1.419       .  A
C2200      C2236   1.477       .  S
C2201      C2202   1.407       .  A
C2201      C2269   1.491       .  S
C2202      C2356   1.491       .  S
O2203     Cr2221   1.993       .  S
O2203      C2211   1.261       .  A
O2204     Cr2221   1.972       .  S
O2204      C2205   1.260       .  A
C2205      C2419   1.481       .  S
C2205      O2206   1.269       .  A
O2206     Cr2222   2.016       .  S
O2207     Cr2222   1.995       .  S
O2207      C2208   1.261       .  A
C2208      C2406   1.477       .  S
C2208      O2209   1.261       .  A
O2209     Cr2223   1.993       .  S
O2210     Cr2223   1.981       .  S
O2210      C2211   1.262       .  A
C2211      C2259   1.467       .  S
O2212     Cr2221   1.986       .  S
O2212      C2220   1.262       .  A
O2213     Cr2221   1.989       .  S
O2213      C2214   1.260       .  A
C2214      C2309   1.472       .  S
C2214      O2215   1.261       .  A
O2215     Cr2222   1.994       .  S
O2216     Cr2222   2.014       .  S
O2216      C2217   1.269       .  A
C2217      C2319   1.481       .  S
C2217      O2218   1.261       .  A
O2218     Cr2223   1.973       .  S
O2219     Cr2223   1.989       .  S
O2219      C2220   1.261       .  A
C2220      C2229   1.465       .  S
Cr2221     O2224   1.770       .  S
Cr2222     O2224   1.778       .  S
Cr2223     O2224   1.767       .  S
C2225      C2226   1.395       .  A
C2225      C2230   1.390       .  A
C2225      H2232   1.083       .  S
C2226      C2227   1.407       .  A
C2227      C2228   1.397       .  A
C2227      F2234   1.358       .  S
C2228      C2229   1.400       .  A
C2228      H2233   1.083       .  S
C2229      C2230   1.409       .  A
C2230      F2231   1.355       .  S
C2235      C2236   1.404       .  A
C2235      C2240   1.395       .  A
C2235      H2242   1.083       .  S
C2236      C2237   1.400       .  A
C2237      C2238   1.393       .  A
C2237      F2244   1.357       .  S
C2238      C2239   1.406       .  A
C2238      H2243   1.084       .  S
C2239      C2240   1.401       .  A
C2240      F2241   1.357       .  S
C2245      C2246   1.405       .  A
C2245      C2250   1.395       .  A
C2245      H2252   1.083       .  S
C2246      C2247   1.400       .  A
C2247      C2248   1.395       .  A
C2247      F2254   1.357       .  S
C2248      C2249   1.407       .  A
C2248      H2253   1.083       .  S
C2249      C2250   1.401       .  A
C2250      F2251   1.357       .  S
C2255      C2256   1.399       .  A
C2255      C2260   1.392       .  A
C2255      H2262   1.082       .  S
C2256      C2257   1.405       .  A
C2257      C2258   1.394       .  A
C2257      F2264   1.357       .  S
C2258      C2259   1.400       .  A
C2258      H2263   1.083       .  S
C2259      C2260   1.410       .  A
C2260      F2261   1.357       .  S
C2265      C2266   1.399       .  A
C2265      C2270   1.399       .  A
C2265      H2272   1.084       .  S
C2266      C2267   1.408       .  A
C2267      C2268   1.399       .  A
C2267      F2274   1.358       .  S
C2268      C2269   1.403       .  A
C2268      H2273   1.083       .  S
C2269      C2270   1.410       .  A
C2270      F2271   1.357       .  S
C2275      C2276   1.403       .  A
C2275      C2280   1.398       .  A
C2275      H2282   1.084       .  S
C2276      C2277   1.405       .  A
C2277      C2278   1.404       .  A
C2277      F2284   1.356       .  S
C2278      C2279   1.409       .  A
C2278      H2283   1.083       .  S
C2279      C2280   1.407       .  A
C2280      F2281   1.357       .  S
C2285      C2286   1.401       .  A
C2285      C2290   1.401       .  A
C2285      H2292   1.083       .  S
C2286      C2287   1.408       .  A
C2287      C2288   1.400       .  A
C2287      F2294   1.358       .  S
C2288      C2289   1.404       .  A
C2288      H2293   1.083       .  S
C2289      C2290   1.409       .  A
C2290      F2291   1.357       .  S
C2295      C2296   1.406       .  A
C2295      C2300   1.398       .  A
C2295      H2302   1.083       .  S
C2296      C2297   1.411       .  A
C2297      C2298   1.401       .  A
C2297      F2304   1.357       .  S
C2298      C2299   1.402       .  A
C2298      H2303   1.082       .  S
C2299      C2300   1.404       .  A
C2300      F2301   1.358       .  S
C2305      C2306   1.406       .  A
C2305      C2310   1.400       .  A
C2305      H2664   1.083       .  S
C2306      C2307   1.404       .  A
C2307      C2308   1.400       .  A
C2307      F2314   1.357       .  S
C2308      C2309   1.405       .  A
C2308      H2313   1.084       .  S
C2309      C2310   1.402       .  A
C2310      F2311   1.357       .  S
H2312      C2657   1.083       .  S
C2315      C2668   1.402       .  A
C2315      C2672   1.396       .  A
C2315      H2322   1.084   1_556  S
C2316      C2667   1.402       .  A
C2316      C2317   1.402       .  A
C2317      C2318   1.400       .  A
C2317      F2324   1.356       .  S
C2318      C2319   1.409       .  A
C2318      H2323   1.083       .  S
C2319      C2320   1.407       .  A
C2320      C2667   1.396       .  A
C2320      F2673   1.357       .  S
F2321      C2672   1.357   1_554  S
C2325      C2326   1.402   1_556  A
C2325      C2330   1.396   1_556  A
C2325      H2684   1.084       .  S
C2326      C2327   1.403       .  A
C2327      C2328   1.399       .  A
C2327      F2334   1.356       .  S
C2328      C2329   1.408       .  A
C2328      H2333   1.083       .  S
C2329      C2330   1.407       .  A
C2330      F2683   1.357   1_554  S
F2331      C2682   1.357       .  S
H2332      C2677   1.084       .  S
C2335      C2688   1.407       .  A
C2335      C2692   1.403       .  A
C2335      H2342   1.083       .  S
C2336      C2687   1.407   1_554  A
C2336      C2337   1.406       .  A
C2337      C2338   1.403       .  A
C2337      F2344   1.357       .  S
C2338      C2339   1.406       .  A
C2338      H2343   1.083       .  S
C2339      C2340   1.404       .  A
C2340      C2687   1.403   1_554  A
C2340      F2693   1.357   1_554  S
F2341      C2692   1.357       .  S
C2345      C2346   1.404   1_455  A
C2345      C2350   1.393       .  A
C2345      H2352   1.083       .  S
C2347      C2348   1.389       .  A
C2347      F2354   1.357       .  S
C2348      H2353   1.083       .  S
C2349      C2350   1.399       .  A
C2350      F2351   1.358       .  S
C2355      C2356   1.403       .  A
C2355      C2360   1.399       .  A
C2355      H2362   1.081       .  S
C2356      C2357   1.408       .  A
C2357      C2358   1.400       .  A
C2357      F2364   1.357       .  S
C2358      C2359   1.401       .  A
C2358      H2363   1.083       .  S
C2359      C2360   1.405       .  A
C2360      F2361   1.357       .  S
C2365      C2366   1.405       .  A
C2365      C2370   1.398       .  A
C2365      H2372   1.083       .  S
C2366      C2367   1.414       .  A
C2367      C2368   1.402       .  A
C2367      F2374   1.358       .  S
C2368      C2369   1.402       .  A
C2368      H2373   1.083       .  S
C2369      C2370   1.405       .  A
C2370      F2371   1.357       .  S
C2375      C2376   1.401       .  A
C2375      C2380   1.399       .  A
C2375      H2382   1.083       .  S
C2376      C2377   1.405       .  A
C2377      C2378   1.401       .  A
C2377      F2384   1.358       .  S
C2378      C2379   1.404       .  A
C2378      H2383   1.080       .  S
C2379      C2380   1.407       .  A
C2380      F2381   1.357       .  S
C2385      C2386   1.411       .  A
C2385      C2390   1.402       .  A
C2385      H2392   1.083       .  S
C2386      C2387   1.409       .  A
C2387      C2388   1.399       .  A
C2387      F2394   1.357       .  S
C2388      C2389   1.404       .  A
C2388      H2393   1.083       .  S
C2389      C2390   1.404       .  A
C2395      C2400   1.395       .  A
C2395      H2402   1.084       .  S
C2396      C2397   1.404       .  A
C2397      C2398   1.393       .  A
C2397      F2404   1.356       .  S
C2398      C2399   1.398       .  A
C2398      H2403   1.083       .  S
C2400      F2401   1.358       .  S
C2405      C2406   1.401       .  A
C2405      C2410   1.401       .  A
C2405      H2412   1.083       .  S
C2406      C2407   1.408       .  A
C2407      C2408   1.401       .  A
C2407      F2414   1.358       .  S
C2408      C2409   1.405       .  A
C2409      C2410   1.409       .  A
C2410      F2411   1.357       .  S
C2415      C2416   1.400       .  A
C2415      C2420   1.398       .  A
C2416      C2417   1.405       .  A
C2417      C2418   1.399       .  A
C2417      F2424   1.358       .  S
C2418      C2419   1.405       .  A
C2418      H2423   1.083       .  S
C2419      C2420   1.411       .  A
C2420      F2421   1.358       .  S
C2425      C2430   1.393       .  A
C2425      H2432   1.084       .  S
C2426      C2427   1.404       .  A
C2427      C2428   1.393       .  A
C2427      F2434   1.356       .  S
C2428      C2429   1.399       .  A
C2428      H2433   1.084       .  S
C2430      F2431   1.358       .  S
C2435      C2436   1.401       .  A
C2435      C2440   1.398       .  A
C2435      H2442   1.082       .  S
C2436      C2789   1.404   1_554  A
C2437      C2788   1.404       .  A
C2437      C2790   1.396       .  A
C2437      F2444   1.358       .  S
C2438      C2789   1.396   1_554  A
C2438      C2439   1.404       .  A
C2438      H2795   1.083   1_554  S
C2439      C2440   1.409       .  A
C2440      F2441   1.358       .  S
H2443      C2790   1.083       .  S
C2445      C2446   1.406       .  A
C2445      C2450   1.401       .  A
C2445      H2452   1.084       .  S
C2446      C2447   1.404       .  A
C2447      C2800   1.402   1_554  A
C2447      F2806   1.357   1_554  S
C2448      C2799   1.402       .  A
C2448      C2801   1.407       .  A
C2448      H2453   1.084       .  S
C2449      C2800   1.407   1_554  A
C2449      C2450   1.405       .  A
C2450      F2451   1.357       .  S
F2454      C2799   1.357       .  S
C2455      C2456   1.404   1_655  A
C2455      C2460   1.394       .  A
C2455      H2462   1.083       .  S
C2457      C2458   1.395       .  A
C2457      F2464   1.358       .  S
C2458      H2463   1.083       .  S
C2459      C2460   1.399       .  A
C2460      F2461   1.357       .  S
C2465      C2470   1.416   1_455  A
C2465      C2808   1.477       .  S
C2466      C2801   1.495       .  S
C2467      C2468   1.415       .  A
C2467      C2768   1.485       .  S
C2469      C2761   1.496       .  S
C2470      C2788   1.483       .  S
O2471     Cr2489   2.000       .  S
O2472     Cr2489   1.974       .  S
O2472      C2473   1.259       .  A
C2473      C2738   1.490       .  S
C2473      O2474   1.270       .  A
O2475     Cr2490   1.982       .  S
O2475      C2476   1.259       .  A
C2476      C2728   1.471       .  S
C2476      O2477   1.265       .  A
O2477     Cr2491   2.006       .  S
O2478     Cr2491   1.971       .  S
O2478      C2479   1.258       .  A
C2479      C2778   1.453       .  S
O2480     Cr2489   1.974       .  S
O2481     Cr2489   2.002       .  S
O2481      C2482   1.264       .  A
C2482      C2711   1.471       .  S
C2482      O2483   1.259       .  A
O2484     Cr2490   2.022       .  S
O2484      C2485   1.271       .  A
C2485      C2718   1.487       .  S
C2485      O2486   1.259       .  A
O2486     Cr2491   1.972       .  S
O2487     Cr2491   2.002       .  S
O2487      C2488   1.263   1_655  A
C2488      C2748   1.457       .  S
Cr2490     O2492   1.773       .  S
Cr2491     O2492   1.770       .  S
C2493      C2494   1.414       .  A
C2494      C2658   1.489       .  S
C2495      C2678   1.484       .  S
C2496      C2497   1.414       .  A
C2496      C2698   1.468       .  S
C2497      C2688   1.496       .  S
C2498      C2668   1.483       .  S
O2499     Cr2517   1.990       .  S
O2500     Cr2517   1.980       .  S
O2500      C2501   1.262       .  A
C2501      C2648   1.485       .  S
C2501      O2502   1.270       .  A
O2503     Cr2518   1.993       .  S
O2503      C2504   1.262       .  A
C2504      C2638   1.477       .  S
C2504      O2505   1.263       .  A
O2505     Cr2519   1.993       .  S
O2506     Cr2519   1.987       .  S
O2506      C2507   1.263       .  A
C2507      C2811   1.466       .  S
O2508     Cr2517   1.981       .  S
O2509     Cr2517   1.988       .  S
O2509      C2510   1.260       .  A
C2510      C2618   1.473       .  S
C2510      O2511   1.262       .  A
O2512     Cr2518   2.013       .  S
O2512      C2513   1.268       .  A
C2513      C2631   1.484       .  S
C2513      O2514   1.261       .  A
O2514     Cr2519   1.985       .  S
O2515     Cr2519   1.983       .  S
O2515      C2516   1.260   1_655  A
C2516      C2701   1.455       .  S
Cr2518     O2520   1.776       .  S
Cr2519     O2520   1.768       .  S
C2521      C2522   1.418       .  A
C2521      C2526   1.417       .  A
C2521      C2608   1.478       .  S
C2522      C2741   1.491       .  S
C2523      C2524   1.415       .  A
C2523      C2651   1.488       .  S
C2524      C2525   1.418       .  A
C2524      C2598   1.478       .  S
C2525      C2641   1.494       .  S
C2526      C2731   1.491       .  S
O2527     Cr2545   1.982       .  S
O2527      C2535   1.261       .  A
O2528     Cr2545   1.994       .  S
O2528      C2529   1.262       .  A
C2529      C2798   1.479       .  S
C2529      O2530   1.262       .  A
O2530     Cr2546   1.997       .  S
O2531     Cr2546   2.009       .  S
O2531      C2532   1.268       .  A
C2532      C2791   1.478       .  S
C2532      O2533   1.261       .  A
O2533     Cr2547   1.975       .  S
O2534     Cr2547   1.997       .  S
O2534      C2535   1.262       .  A
C2535      C2601   1.466       .  S
O2536     Cr2545   1.994       .  S
O2536      C2544   1.262       .  A
O2537     Cr2545   1.974       .  S
O2537      C2538   1.261       .  A
C2538      C2681   1.479       .  S
C2538      O2539   1.268       .  A
O2539     Cr2546   2.009       .  S
O2540     Cr2546   1.999       .  S
O2540      C2541   1.263       .  A
C2541      C2691   1.481       .  S
C2541      O2542   1.262       .  A
O2542     Cr2547   1.998       .  S
O2543     Cr2547   1.981       .  S
O2543      C2544   1.261       .  A
C2544      C2591   1.464       .  S
Cr2545     O2548   1.770       .  S
Cr2546     O2548   1.778       .  S
Cr2547     O2548   1.769       .  S
C2549      C2550   1.414       .  A
C2549      C2554   1.412       .  A
C2549      C2578   1.474       .  S
C2550      C2551   1.406       .  A
C2550      C2721   1.486       .  S
C2551      C2552   1.415       .  A
C2551      C2628   1.489       .  S
C2552      C2553   1.419       .  A
C2552      C2588   1.477       .  S
C2553      C2554   1.407       .  A
C2553      C2621   1.491       .  S
C2554      C2708   1.491       .  S
O2555     Cr2573   1.993       .  S
O2555      C2563   1.261       .  A
O2556     Cr2573   1.972       .  S
O2556      C2557   1.260       .  A
C2557      C2771   1.481       .  S
C2557      O2558   1.269       .  A
O2558     Cr2574   2.016       .  S
O2559     Cr2574   1.995       .  S
O2559      C2560   1.261       .  A
C2560      C2758   1.477       .  S
C2560      O2561   1.261       .  A
O2561     Cr2575   1.993       .  S
O2562     Cr2575   1.981       .  S
O2562      C2563   1.262       .  A
C2563      C2611   1.467       .  S
O2564     Cr2573   1.986       .  S
O2564      C2572   1.262       .  A
O2565     Cr2573   1.989       .  S
O2565      C2566   1.260       .  A
C2566      C2661   1.472       .  S
C2566      O2567   1.261       .  A
O2567     Cr2574   1.994       .  S
O2568     Cr2574   2.014       .  S
O2568      C2569   1.269       .  A
C2569      C2671   1.481       .  S
C2569      O2570   1.261       .  A
O2570     Cr2575   1.973       .  S
O2571     Cr2575   1.989       .  S
O2571      C2572   1.261       .  A
C2572      C2581   1.465       .  S
Cr2573     O2576   1.770       .  S
Cr2574     O2576   1.778       .  S
Cr2575     O2576   1.767       .  S
C2577      C2578   1.395       .  A
C2577      C2582   1.390       .  A
C2577      H2584   1.083       .  S
C2578      C2579   1.407       .  A
C2579      C2580   1.397       .  A
C2579      F2586   1.358       .  S
C2580      C2581   1.400       .  A
C2580      H2585   1.083       .  S
C2581      C2582   1.409       .  A
C2582      F2583   1.355       .  S
C2587      C2588   1.404       .  A
C2587      C2592   1.395       .  A
C2587      H2594   1.083       .  S
C2588      C2589   1.400       .  A
C2589      C2590   1.393       .  A
C2589      F2596   1.357       .  S
C2590      C2591   1.406       .  A
C2590      H2595   1.084       .  S
C2591      C2592   1.401       .  A
C2592      F2593   1.357       .  S
C2597      C2598   1.405       .  A
C2597      C2602   1.395       .  A
C2597      H2604   1.083       .  S
C2598      C2599   1.400       .  A
C2599      C2600   1.395       .  A
C2599      F2606   1.357       .  S
C2600      C2601   1.407       .  A
C2600      H2605   1.083       .  S
C2601      C2602   1.401       .  A
C2602      F2603   1.357       .  S
C2607      C2608   1.399       .  A
C2607      C2612   1.392       .  A
C2607      H2614   1.082       .  S
C2608      C2609   1.405       .  A
C2609      C2610   1.394       .  A
C2609      F2616   1.357       .  S
C2610      C2611   1.400       .  A
C2610      H2615   1.083       .  S
C2611      C2612   1.410       .  A
C2612      F2613   1.357       .  S
C2617      C2618   1.399       .  A
C2617      C2622   1.399       .  A
C2617      H2624   1.084       .  S
C2618      C2619   1.408       .  A
C2619      C2620   1.399       .  A
C2619      F2626   1.358       .  S
C2620      C2621   1.403       .  A
C2620      H2625   1.083       .  S
C2621      C2622   1.410       .  A
C2622      F2623   1.357       .  S
C2627      C2628   1.403       .  A
C2627      C2632   1.398       .  A
C2627      H2634   1.084       .  S
C2628      C2629   1.405       .  A
C2629      C2630   1.404       .  A
C2629      F2636   1.356       .  S
C2630      C2631   1.409       .  A
C2630      H2635   1.083       .  S
C2631      C2632   1.407       .  A
C2632      F2633   1.357       .  S
C2637      C2638   1.401       .  A
C2637      C2642   1.401       .  A
C2637      H2644   1.083       .  S
C2638      C2639   1.408       .  A
C2639      C2640   1.400       .  A
C2639      F2646   1.358       .  S
C2640      C2641   1.404       .  A
C2640      H2645   1.083       .  S
C2641      C2642   1.409       .  A
C2642      F2643   1.357       .  S
C2647      C2648   1.406       .  A
C2647      C2652   1.398       .  A
C2647      H2654   1.083       .  S
C2648      C2649   1.411       .  A
C2649      C2650   1.401       .  A
C2649      F2656   1.357       .  S
C2650      C2651   1.402       .  A
C2650      H2655   1.082       .  S
C2651      C2652   1.404       .  A
C2652      F2653   1.358       .  S
C2657      C2658   1.406   1_554  A
C2657      C2662   1.400   1_554  A
C2658      C2659   1.404       .  A
C2659      C2660   1.399       .  A
C2659      F2666   1.357       .  S
C2660      C2661   1.405       .  A
C2660      H2665   1.084       .  S
C2661      C2662   1.402       .  A
C2662      F2663   1.357   1_556  S
C2667      H2674   1.084       .  S
C2668      C2669   1.402       .  A
C2669      C2670   1.400       .  A
C2669      F2676   1.356       .  S
C2670      C2671   1.409       .  A
C2670      H2675   1.083       .  S
C2671      C2672   1.407       .  A
C2677      C2678   1.402       .  A
C2677      C2682   1.396       .  A
C2678      C2679   1.403       .  A
C2679      C2680   1.399       .  A
C2679      F2686   1.356       .  S
C2680      C2681   1.408       .  A
C2680      H2685   1.083       .  S
C2681      C2682   1.407       .  A
C2687      H2694   1.083       .  S
C2688      C2689   1.406       .  A
C2689      C2690   1.403       .  A
C2689      F2696   1.357       .  S
C2690      C2691   1.406       .  A
C2690      H2695   1.083       .  S
C2691      C2692   1.404       .  A
C2697      C2698   1.404   1_455  A
C2697      C2702   1.393       .  A
C2697      H2704   1.083       .  S
C2699      C2700   1.389       .  A
C2699      F2706   1.357       .  S
C2700      H2705   1.083       .  S
C2701      C2702   1.399       .  A
C2702      F2703   1.358       .  S
C2707      C2708   1.403       .  A
C2707      C2712   1.399       .  A
C2707      H2714   1.081       .  S
C2708      C2709   1.408       .  A
C2709      C2710   1.400       .  A
C2709      F2716   1.357       .  S
C2710      C2711   1.401       .  A
C2710      H2715   1.083       .  S
C2711      C2712   1.405       .  A
C2712      F2713   1.357       .  S
C2717      C2718   1.405       .  A
C2717      C2722   1.398       .  A
C2717      H2724   1.083       .  S
C2718      C2719   1.414       .  A
C2719      C2720   1.402       .  A
C2719      F2726   1.358       .  S
C2720      C2721   1.402       .  A
C2720      H2725   1.083       .  S
C2721      C2722   1.405       .  A
C2722      F2723   1.357       .  S
C2727      C2728   1.400       .  A
C2727      C2732   1.399       .  A
C2727      H2734   1.083       .  S
C2728      C2729   1.405       .  A
C2729      C2730   1.401       .  A
C2729      F2736   1.358       .  S
C2730      C2731   1.404       .  A
C2730      H2735   1.080       .  S
C2731      C2732   1.407       .  A
C2732      F2733   1.357       .  S
C2737      C2738   1.411       .  A
C2737      C2742   1.402       .  A
C2737      H2744   1.083       .  S
C2738      C2739   1.409       .  A
C2739      C2740   1.399       .  A
C2739      F2746   1.357       .  S
C2740      C2741   1.404       .  A
C2740      H2745   1.083       .  S
C2741      C2742   1.404       .  A
C2747      C2752   1.395       .  A
C2747      H2754   1.084       .  S
C2748      C2749   1.404       .  A
C2749      C2750   1.393       .  A
C2749      F2756   1.356       .  S
C2750      C2751   1.398       .  A
C2750      H2755   1.083       .  S
C2752      F2753   1.358       .  S
C2757      C2758   1.401       .  A
C2757      C2762   1.401   1_556  A
C2757      H2764   1.083   1_556  S
C2758      C2759   1.408       .  A
C2759      C2760   1.401       .  A
C2759      F2766   1.358       .  S
C2760      C2761   1.405       .  A
C2761      C2762   1.409   1_556  A
C2762      F2763   1.357       .  S
C2767      C2768   1.400       .  A
C2767      C2772   1.399       .  A
C2768      C2769   1.405   1_556  A
C2769      C2770   1.399   1_554  A
C2769      F2776   1.358       .  S
C2770      C2771   1.405       .  A
C2770      H2775   1.083   1_556  S
C2771      C2772   1.411       .  A
C2772      F2773   1.358       .  S
C2777      C2782   1.393       .  A
C2777      H2784   1.084       .  S
C2778      C2779   1.404       .  A
C2779      C2780   1.393       .  A
C2779      F2786   1.356       .  S
C2780      C2781   1.399       .  A
C2780      H2785   1.084       .  S
C2782      F2783   1.358       .  S
C2787      C2788   1.401       .  A
C2787      C2792   1.398       .  A
C2787      H2794   1.082       .  S
C2789      F2796   1.358       .  S
C2790      C2791   1.404       .  A
C2791      C2792   1.409       .  A
C2792      F2793   1.358       .  S
C2797      C2798   1.406       .  A
C2797      C2802   1.401       .  A
C2797      H2804   1.084       .  S
C2798      C2799   1.404       .  A
C2800      H2805   1.084       .  S
C2801      C2802   1.405       .  A
C2802      F2803   1.357       .  S
C2807      C2808   1.404   1_655  A
C2807      C2812   1.394       .  A
C2807      H2814   1.083       .  S
C2809      C2810   1.395       .  A
C2809      F2816   1.358       .  S
C2810      H2815   1.083       .  S
C2811      C2812   1.399       .  A
C2812      F2813   1.357       .  S
