geometry optimzed in LAMMPS
_audit_creation_date              2020-11-30 
_audit_creation_method            'lammps2cif' 
_symmetry_space_group_name_H-M    'P1' 
_symmetry_Int_Tables_number       1 
_symmetry_cell_setting            triclinic 
loop_ 
_symmetry_equiv_pos_as_xyz 
  x,y,z 
_cell_length_a                    25.29465723 
_cell_length_b                    25.529083845784008 
_cell_length_c                    51.01977571607467 
_cell_angle_alpha                 90.01827718466242 
_cell_angle_beta                  90.10647633549414 
_cell_angle_gamma                 89.77288914333177 
loop_ 
_atom_site_label 
_atom_site_type_symbol 
_atom_site_fract_x 
_atom_site_fract_y 
_atom_site_fract_z 
_atom_site_charge 
C1          C  0.72715989  0.95939126  0.36279010     0.80000
N2          N  0.68795789  0.99529651  0.36586225    -0.78300
C3          C  0.69068021  0.03169949  0.38529852     0.82400
N4          N  0.73371691  0.03210340  0.40144799    -0.78300
C5          C  0.77342510  0.99649016  0.39826775     0.82500
N6          N  0.76966995  0.96042162  0.37890722    -0.80000
O7          O  0.77877362  0.68973142  0.26640245    -0.72000
O8          O  0.77636754  0.79853603  0.21581640    -0.72300
O9          O  0.77641889  0.79443088  0.26817329    -0.72100
O10         O  0.77853077  0.69345300  0.21383086    -0.72100
O11         O  0.69300354  0.69065441  0.21408076    -0.72100
O12         O  0.69069116  0.79387555  0.26771110    -0.72100
O13         O  0.69058855  0.79576555  0.21500648    -0.72000
O14         O  0.69323243  0.68908075  0.26670369    -0.72200
V15         V  0.77585532  0.74396568  0.24100295     1.35200
V16         V  0.69349565  0.74239488  0.24086003     1.35200
C17         C  0.73634682  0.67134038  0.27562889     0.77200
C18         C  0.73310374  0.81549320  0.20668776     0.77300
C19         C  0.73326997  0.81158907  0.27719650     0.77100
C20         C  0.73624175  0.67426544  0.20474413     0.77100
C21         C  0.74694259  0.51751947  0.35955286     0.80000
N22         N  0.78374444  0.47881565  0.36102461    -0.78300
C23         C  0.78207490  0.44277409  0.38061464     0.82400
N24         N  0.74296805  0.44574188  0.39881701    -0.78300
C25         C  0.70552027  0.48407810  0.39752014     0.82500
N26         N  0.70826399  0.51971031  0.37790688    -0.80000
C27         C  0.75283791  0.50882362  0.12674206     0.80000
N28         N  0.71351807  0.47281499  0.12519113    -0.78300
C29         C  0.71435367  0.43463152  0.10661262     0.82400
N30         N  0.75529199  0.43275293  0.08936170    -0.78300
C31         C  0.79507737  0.46824892  0.09085823     0.82500
N32         N  0.79339463  0.50636039  0.10939984    -0.80000
C33         C  0.74077275  0.97878265  0.12758361     0.80000
N34         N  0.77773454  0.01713783  0.12720504    -0.78300
C35         C  0.77868680  0.05285593  0.10752544     0.82400
N36         N  0.74251220  0.05014223  0.08790305    -0.78300
C37         C  0.70552763  0.01174250  0.08769324     0.82500
N38         N  0.70514529  0.97656924  0.10767201    -0.80000
C39         C  0.49976634  0.03142214  0.00895595     0.02000
C40         C  0.53943724  0.99221930  0.00945216     0.02000
C41         C  0.53729286  0.95102024  0.99129808    -0.18500
C42         C  0.49644726  0.94813744  0.97274167     0.02000
C43         C  0.45666063  0.98728529  0.97259609     0.02000
C44         C  0.45874998  0.02847871  0.99062781    -0.18500
H45         H  0.42825015  0.05845097  0.99039259     0.04000
H46         H  0.56715151  0.92052173  0.99200600     0.04000
C47         C  0.24654699  0.00913709  0.85984310     0.80000
N48         N  0.28428157  0.00949954  0.87867963    -0.78300
C49         C  0.28612726  0.97238602  0.89762479     0.82400
N50         N  0.24929644  0.93390621  0.89772650    -0.78300
C51         C  0.21079862  0.93281136  0.87913427     0.82500
N52         N  0.20934607  0.97074684  0.86037256    -0.80000
C53         C  0.23002760  0.48137858  0.85491045     0.80000
N54         N  0.18995657  0.48489474  0.87236661    -0.78300
C55         C  0.18913792  0.52269268  0.89089479     0.82400
N56         N  0.22915520  0.55766284  0.89214077    -0.78300
C57         C  0.26908822  0.55637828  0.87442281     0.82500
N58         N  0.26941868  0.51767608  0.85592621    -0.80000
O59         O  0.28053904  0.29643451  0.76849869    -0.72000
O60         O  0.28038737  0.18581253  0.71886793    -0.72300
O61         O  0.28059170  0.29040553  0.71614921    -0.72100
O62         O  0.27989774  0.19089376  0.77134345    -0.72100
O63         O  0.19442174  0.18796394  0.76952716    -0.72100
O64         O  0.19485891  0.29447595  0.71772463    -0.72100
O65         O  0.19499455  0.18918994  0.71685787    -0.72000
O66         O  0.19483015  0.29340119  0.77019589    -0.72200
V67         V  0.27872468  0.24084735  0.74377919     1.35200
V68         V  0.19636599  0.24122513  0.74361054     1.35200
C69         C  0.23769452  0.31391315  0.77776299     0.77200
C70         C  0.23796822  0.16938065  0.70875618     0.77300
C71         C  0.23777227  0.31005649  0.70788129     0.77100
C72         C  0.23704301  0.17120890  0.77942769     0.77100
C73         C  0.23441357  0.01333325  0.62536717     0.80000
N74         N  0.19751262  0.01375145  0.60597597    -0.78300
C75         C  0.20009446  0.97896004  0.58578185     0.82400
N76         N  0.24081029  0.94425854  0.58506514    -0.78300
C77         C  0.27824281  0.94330480  0.60412810     0.82500
N78         N  0.27457568  0.97788972  0.62425108    -0.80000
C79         C  0.24567507  0.46389757  0.62460210     0.80000
N80         N  0.20606381  0.49983622  0.62250996    -0.78300
C81         C  0.20715268  0.53741572  0.60366850     0.82400
N82         N  0.24878967  0.53927412  0.58691808    -0.78300
C83         C  0.28899752  0.50419335  0.58906947     0.82500
N84         N  0.28706399  0.46672503  0.60784252    -0.80000
C85         C  0.99358712  0.45014973  0.00745060     0.02000
C86         C  0.95581806  0.49040429  0.01152847     0.02000
C87         C  0.95835192  0.53636276  0.99656584    -0.18500
C88         C  0.99722657  0.54267456  0.97734058     0.02000
C89         C  0.03472218  0.50226219  0.97307989     0.02000
C90         C  0.03216594  0.45624555  0.98802290    -0.18500
H91         H  0.05988094  0.42467090  0.98427194     0.04000
H92         H  0.92975785  0.56741844  0.99981450     0.04000
O93         O  0.80438515  0.77974429  0.76404121    -0.72000
O94         O  0.69265788  0.79037894  0.71474035    -0.72300
O95         O  0.69834790  0.78409760  0.76706424    -0.72100
O96         O  0.79820209  0.78536370  0.71158776    -0.72100
O97         O  0.79823202  0.70057353  0.71113862    -0.72100
O98         O  0.69113419  0.70003584  0.76296426    -0.72100
O99         O  0.69285495  0.70560034  0.71045704    -0.72000
O100        O  0.79692203  0.69499996  0.76385102    -0.72200
V101        V  0.74838620  0.78331092  0.73935765     1.35200
V102        V  0.74488910  0.70188175  0.73717764     1.35200
C103        C  0.81871965  0.73568189  0.77285109     0.77200
C104        C  0.67483443  0.74981715  0.70376213     0.77300
C105        C  0.67658189  0.74181594  0.77411982     0.77100
C106        C  0.81546533  0.74312365  0.70182765     0.77100
C107        C  0.51545294  0.74797140  0.85532619     0.80000
N108        N  0.47716887  0.71081181  0.85542217    -0.78300
C109        C  0.44080521  0.70878711  0.87493495     0.82400
N110        N  0.44291384  0.74512476  0.89444940    -0.78300
C111        C  0.48074884  0.78278729  0.89468810     0.82500
N112        N  0.51694837  0.78340328  0.87506917    -0.80000
C113        C  0.97446345  0.73758374  0.85633540     0.80000
N114        N  0.97015909  0.70223194  0.87612396    -0.78300
C115        C  0.00248179  0.70374035  0.89739935     0.82400
N116        N  0.04043638  0.74138047  0.89853648    -0.78300
C117        C  0.04496564  0.77743496  0.87909012     0.82500
N118        N  0.01189149  0.77529427  0.85816351    -0.80000
C119        C  0.52400207  0.75558358  0.61968003     0.80000
N120        N  0.48393113  0.79075901  0.61831361    -0.78300
C121        C  0.44557435  0.78635128  0.59974671     0.82400
N122        N  0.44765532  0.74544694  0.58259982    -0.78300
C123        C  0.48709416  0.70907797  0.58424837     0.82500
N124        N  0.52494148  0.71477391  0.60279863    -0.80000
C125        C  0.96861997  0.73452867  0.61721558     0.80000
N126        N  0.96866278  0.77301612  0.59889408    -0.78300
C127        C  0.00617932  0.77440228  0.57990828     0.82400
N128        N  0.04473529  0.73717183  0.57970765    -0.78300
C129        C  0.04556074  0.69868305  0.59811705     0.82500
N130        N  0.00728016  0.69758046  0.61674473    -0.80000
C131        C  0.01218941  0.25304188  0.12527847     0.80000
N132        N  0.01304366  0.28776377  0.10515822    -0.78300
C133        C  0.97557352  0.28763081  0.08598183     0.82400
N134        N  0.93587651  0.25208929  0.08742788    -0.78300
C135        C  0.93393818  0.21728516  0.10753007     0.82500
N136        N  0.97238666  0.21746928  0.12614447    -0.80000
C137        C  0.47551967  0.23848998  0.12262358     0.80000
N138        N  0.47346776  0.20218798  0.10327666    -0.78300
C139        C  0.50992294  0.20125706  0.08379747     0.82400
N140        N  0.54918464  0.23740297  0.08381561    -0.78300
C141        C  0.55182948  0.27437593  0.10294691     0.82500
N142        N  0.51458813  0.27491676  0.12216854    -0.80000
O143        O  0.19330694  0.28742847  0.26712982    -0.72000
O144        O  0.30055809  0.28746275  0.21543807    -0.72300
O145        O  0.19438958  0.28858340  0.21467457    -0.72100
O146        O  0.29900722  0.28602430  0.26814352    -0.72100
O147        O  0.30108461  0.20099002  0.26619530    -0.72100
O148        O  0.19110609  0.20358266  0.21542776    -0.72100
O149        O  0.29756393  0.20282656  0.21358223    -0.72000
O150        O  0.19487414  0.20258895  0.26792622    -0.72200
V151        V  0.24688025  0.28572346  0.24129875     1.35200
V152        V  0.24622778  0.20408253  0.24076357     1.35200
C153        C  0.17614257  0.24520700  0.27668111     0.77200
C154        C  0.31722501  0.24534149  0.20538338     0.77300
C155        C  0.17379759  0.24654584  0.20653079     0.77100
C156        C  0.31794891  0.24302783  0.27618262     0.77100
C157        C  0.01447203  0.23971049  0.35687670     0.80000
N158        N  0.01326736  0.20018981  0.37455130    -0.78300
C159        C  0.97711201  0.19958537  0.39419777     0.82400
N160        N  0.94190534  0.23986395  0.39590898    -0.78300
C161        C  0.94301991  0.28028453  0.37852816     0.82500
N162        N  0.97946759  0.27984117  0.35903642    -0.80000
C163        C  0.46469280  0.24022198  0.36347885     0.80000
N164        N  0.46575114  0.28040804  0.38083595    -0.78300
C165        C  0.50152504  0.28147037  0.40062458     0.82400
N166        N  0.53680591  0.24160232  0.40312225    -0.78300
C167        C  0.53722804  0.20148413  0.38565046     0.82500
N168        N  0.50088910  0.20093523  0.36590130    -0.80000
C169        C  0.95072591  0.98937351  0.47015872     0.02000
C170        C  0.99061022  0.02778509  0.46880233     0.02000
C171        C  0.03297180  0.02602856  0.48652991    -0.18500
C172        C  0.03604242  0.98714498  0.50590615     0.02000
C173        C  0.99700108  0.94745130  0.50653593     0.02000
C174        C  0.95504564  0.94889335  0.48857443    -0.18500
H175        H  0.92524063  0.91849944  0.48909954     0.04000
H176        H  0.06366577  0.05534748  0.48522816     0.04000
C177        C  0.50057393  0.44864589  0.47711720     0.02000
C178        C  0.53945590  0.48833275  0.47591148     0.02000
C179        C  0.53614235  0.53148512  0.49279760    -0.18500
C180        C  0.49488069  0.53592380  0.51090790     0.02000
C181        C  0.45610590  0.49619791  0.51224765     0.02000
C182        C  0.45945478  0.45311300  0.49533275    -0.18500
H183        H  0.42924878  0.42321191  0.49609988     0.04000
H184        H  0.56584976  0.56193163  0.49178604     0.04000
C185        C  0.50715756  0.31260983  0.44651737    -0.20600
C186        C  0.50098819  0.32478591  0.41984326    -0.07100
C187        C  0.49387819  0.37765005  0.41223365     0.13700
C188        C  0.49263177  0.41663283  0.43151863    -0.20600
C189        C  0.49973275  0.40467170  0.45809887    -0.07100
C190        C  0.50563575  0.35176026  0.46583800     0.13700
C191        C  0.50932926  0.33598180  0.49429245    -0.24000
H192        H  0.51182807  0.27200559  0.45232171     0.15000
H193        H  0.48590969  0.45695186  0.42580863     0.15000
C194        C  0.48992292  0.39386307  0.38386626    -0.23900
H195        H  0.51745566  0.29341902  0.49648515     0.05300
H196        H  0.47142725  0.34432474  0.50434465     0.08500
H197        H  0.54131092  0.35753115  0.50438449     0.08500
H198        H  0.45308966  0.37860683  0.37499021     0.08500
H199        H  0.52467369  0.37881228  0.37288941     0.08500
H200        H  0.48910486  0.43715564  0.38166744     0.05200
C201        C  0.01803686  0.11709335  0.41095708    -0.20600
C202        C  0.97806693  0.15553412  0.41361950    -0.07100
C203        C  0.94150518  0.15046300  0.43464592     0.13700
C204        C  0.94726877  0.10877495  0.45240322    -0.20600
C205        C  0.98750259  0.07137776  0.44965225    -0.07100
C206        C  0.02300893  0.07520456  0.42853956     0.13700
C207        C  0.06557821  0.03459833  0.42416948    -0.24000
H208        H  0.04608107  0.11953008  0.39500584     0.15000
H209        H  0.92006770  0.10519191  0.46866690     0.15000
C210        C  0.89594327  0.18781264  0.43879708    -0.23900
H211        H  0.08856438  0.04250112  0.40607982     0.05300
H212        H  0.04753782  0.99523421  0.42221476     0.08500
H213        H  0.09366729  0.03438031  0.44088041     0.08500
H214        H  0.86991628  0.18797130  0.42125408     0.08500
H215        H  0.91098090  0.22780668  0.44280389     0.08500
H216        H  0.87117992  0.17634593  0.45580073     0.05200
C217        C  0.08299056  0.28680190  0.33188645    -0.20600
C218        C  0.05510793  0.24029661  0.33614109    -0.07100
C219        C  0.06673253  0.19571746  0.32072903     0.13700
C220        C  0.10620938  0.19885467  0.30152736    -0.20600
C221        C  0.13470575  0.24526152  0.29731697    -0.07100
C222        C  0.12290466  0.28993546  0.31289480     0.13700
C223        C  0.15266663  0.34076870  0.31033736    -0.24000
H224        H  0.07408426  0.32073508  0.34390554     0.15000
H225        H  0.11458065  0.16471136  0.28958336     0.15000
C226        C  0.03658368  0.14523436  0.32375960    -0.23900
H227        H  0.13972472  0.37009760  0.32510607     0.05300
H228        H  0.14556494  0.35817539  0.29071189     0.08500
H229        H  0.19560948  0.33373634  0.31334142     0.08500
H230        H  0.99356909  0.15277398  0.32141889     0.08500
H231        H  0.04437497  0.12788513  0.34331789     0.08500
H232        H  0.04847187  0.11575717  0.30885313     0.05200
C233        C  0.44016288  0.21618755  0.31770358    -0.20600
C234        C  0.42589411  0.24038271  0.34146952    -0.07100
C235        C  0.37533101  0.26453097  0.34342688     0.13700
C236        C  0.34194809  0.26552163  0.32144421    -0.20600
C237        C  0.35668166  0.24198862  0.29777322    -0.07100
C238        C  0.40633670  0.21674591  0.29583426     0.13700
C239        C  0.42578155  0.19164833  0.27086832    -0.24000
H240        H  0.47859850  0.19759530  0.31590392     0.15000
H241        H  0.30331026  0.28388872  0.32288400     0.15000
C242        C  0.35468995  0.28729316  0.36873823    -0.23900
H243        H  0.43250982  0.14916672  0.27420764     0.05300
H244        H  0.46372585  0.20991135  0.26498736     0.08500
H245        H  0.39794344  0.19623533  0.25423852     0.08500
H246        H  0.37727450  0.32274660  0.37418124     0.08500
H247        H  0.35751079  0.25763122  0.38459781     0.08500
H248        H  0.31256177  0.29932248  0.36706689     0.05200
C249        C  0.37254414  0.19682592  0.17323814    -0.20600
C250        C  0.35841853  0.24516698  0.18445084    -0.07100
C251        C  0.38386900  0.29121308  0.17531307     0.13700
C252        C  0.42182542  0.28732353  0.15531821    -0.20600
C253        C  0.43514041  0.23907453  0.14384240    -0.07100
C254        C  0.41014324  0.19303440  0.15313684     0.13700
C255        C  0.42314955  0.13934337  0.14256963    -0.24000
H256        H  0.35369456  0.16135870  0.18010172     0.15000
H257        H  0.44081266  0.32262239  0.14830904     0.15000
C258        C  0.37189365  0.34482771  0.18628583    -0.23900
H259        H  0.40315515  0.10785466  0.15378199     0.05300
H260        H  0.46639591  0.13208448  0.14381052     0.08500
H261        H  0.40939663  0.13616372  0.12198838     0.08500
H262        H  0.38067732  0.34561570  0.20761097     0.08500
H263        H  0.32977696  0.35499913  0.18273545     0.08500
H264        H  0.39617706  0.37574866  0.17691818     0.05200
C265        C  0.04682220  0.22140462  0.16838680    -0.20600
C266        C  0.05438219  0.25292150  0.14601195    -0.07100
C267        C  0.10184585  0.28265493  0.14429606     0.13700
C268        C  0.13928640  0.27967427  0.16458085    -0.20600
C269        C  0.13151078  0.24796684  0.18655690    -0.07100
C270        C  0.08423910  0.21894143  0.18871917     0.13700
C271        C  0.07051313  0.18672274  0.21253287    -0.24000
H272        H  0.01082438  0.19891519  0.17044588     0.15000
H273        H  0.17561359  0.30191202  0.16313817     0.15000
C274        C  0.11472428  0.31740789  0.12134632    -0.23900
H275        H  0.06704357  0.14488029  0.20687270     0.05300
H276        H  0.03197392  0.20020835  0.22051886     0.08500
H277        H  0.09970990  0.18995953  0.22861771     0.08500
H278        H  0.08546984  0.34981331  0.12017246     0.08500
H279        H  0.11511756  0.29399737  0.10300985     0.08500
H280        H  0.15429480  0.33574881  0.12326772     0.05200
C281        C  0.01747354  0.85454942  0.51690732    -0.20600
C282        C  0.99919641  0.90351604  0.52553667    -0.07100
C283        C  0.98250525  0.90952515  0.55169668     0.13700
C284        C  0.98610204  0.86685393  0.56887880    -0.20600
C285        C  0.00558092  0.81791888  0.56057756    -0.07100
C286        C  0.02127683  0.81166776  0.53408632     0.13700
C287        C  0.04021123  0.75985090  0.52341161    -0.24000
H288        H  0.02931884  0.85014073  0.49661195     0.15000
H289        H  0.97362537  0.87189418  0.58903930     0.15000
C290        C  0.95978377  0.96049400  0.56141180    -0.23900
H291        H  0.04720911  0.76162415  0.50194311     0.05300
H292        H  0.01008819  0.72920849  0.52707695     0.08500
H293        H  0.07815241  0.74861210  0.53278500     0.08500
H294        H  0.92557159  0.97221548  0.54903675     0.08500
H295        H  0.99034509  0.99121096  0.56068527     0.08500
H296        H  0.94601995  0.95752539  0.58201558     0.05200
C297        C  0.46865065  0.67046836  0.54035517    -0.20600
C298        C  0.48980912  0.66421467  0.56568377    -0.07100
C299        C  0.51411083  0.61567989  0.57241071     0.13700
C300        C  0.51711923  0.57579841  0.55361692    -0.20600
C301        C  0.49410842  0.58151693  0.52887256    -0.07100
C302        C  0.47087409  0.62979771  0.52182850     0.13700
C303        C  0.44944990  0.63877516  0.49466514    -0.24000
H304        H  0.45089717  0.70759025  0.53486880     0.15000
H305        H  0.53681318  0.53924601  0.55840966     0.15000
C306        C  0.53525286  0.60408649  0.59949227    -0.23900
H307        H  0.43336925  0.67904519  0.49228919     0.05300
H308        H  0.41720790  0.61081314  0.49061205     0.08500
H309        H  0.48141330  0.63309578  0.48004238     0.08500
H310        H  0.50410479  0.61170337  0.61433816     0.08500
H311        H  0.57061101  0.62831797  0.60360057     0.08500
H312        H  0.54760217  0.56248145  0.60157042     0.05200
C313        C  0.86939027  0.69369906  0.66940897    -0.20600
C314        C  0.85433832  0.74256583  0.67988443    -0.07100
C315        C  0.87625842  0.78871451  0.66888216     0.13700
C316        C  0.91295560  0.78435060  0.64839324    -0.20600
C317        C  0.92878326  0.73548012  0.63848151    -0.07100
C318        C  0.90611561  0.68948708  0.64893491     0.13700
C319        C  0.91896739  0.63588076  0.63819806    -0.24000
H320        H  0.85235341  0.65816650  0.67728420     0.15000
H321        H  0.93016370  0.81961685  0.64027370     0.15000
C322        C  0.86186814  0.84288033  0.67837738    -0.23900
H323        H  0.89430003  0.60497049  0.64731998     0.05300
H324        H  0.96086229  0.62585428  0.64230930     0.08500
H325        H  0.91160977  0.63502343  0.61673871     0.08500
H326        H  0.87254439  0.84709914  0.69938585     0.08500
H327        H  0.81890139  0.84996556  0.67555971     0.08500
H328        H  0.88318935  0.87387665  0.66742386     0.05200
C329        C  0.90619468  0.76121563  0.79009398    -0.20600
C330        C  0.85969191  0.73244073  0.79335808    -0.07100
C331        C  0.85198449  0.70371127  0.81660573     0.13700
C332        C  0.89027711  0.70611022  0.83646542    -0.20600
C333        C  0.93682997  0.73577508  0.83369703    -0.07100
C334        C  0.94536211  0.76263936  0.80963494     0.13700
C335        C  0.99555072  0.79206441  0.80375168    -0.24000
H336        H  0.91192069  0.78266296  0.77197898     0.15000
H337        H  0.88290510  0.68529453  0.85451924     0.15000
C338        C  0.80244020  0.67225760  0.82105772    -0.23900
H339        H  0.99639997  0.80661715  0.78323918     0.05300
H340        H  0.03028028  0.76585777  0.80642621     0.08500
H341        H  0.99889057  0.82679008  0.81664718     0.08500
H342        H  0.79979042  0.64034750  0.80634690     0.08500
H343        H  0.76713270  0.69805310  0.81937421     0.08500
H344        H  0.80198129  0.65392934  0.84079985     0.05200
C345        C  0.62144137  0.79009433  0.80641542    -0.20600
C346        C  0.63503075  0.74193819  0.79481006    -0.07100
C347        C  0.60831408  0.69604569  0.80313446     0.13700
C348        C  0.56974960  0.69983908  0.82277739    -0.20600
C349        C  0.55657465  0.74787727  0.83451086    -0.07100
C350        C  0.58281301  0.79383027  0.82603600     0.13700
C351        C  0.56989960  0.84735198  0.83686806    -0.24000
H352        H  0.64124629  0.82546828  0.80012313     0.15000
H353        H  0.55020548  0.66452798  0.82930561     0.15000
C354        C  0.61957446  0.64265806  0.79169321    -0.23900
H355        H  0.59112835  0.87888700  0.82626478     0.05300
H356        H  0.58215947  0.84976611  0.85768282     0.08500
H357        H  0.52686743  0.85527606  0.83497559     0.08500
H358        H  0.66145194  0.63164544  0.79533830     0.08500
H359        H  0.61114796  0.64282478  0.77032938     0.08500
H360        H  0.59456808  0.61178911  0.80062681     0.05200
C361        C  0.65275212  0.74306003  0.65721919    -0.20600
C362        C  0.63575428  0.75404891  0.68270798    -0.07100
C363        C  0.58294714  0.76957411  0.68723713     0.13700
C364        C  0.54776594  0.77186438  0.66600047    -0.20600
C365        C  0.56435787  0.75942141  0.64046318    -0.07100
C366        C  0.61816896  0.74694370  0.63588911     0.13700
C367        C  0.64127202  0.73958717  0.60888606    -0.24000
H368        H  0.69381690  0.73263992  0.65384903     0.15000
H369        H  0.50666499  0.78169227  0.66959069     0.15000
C370        C  0.56202156  0.78210699  0.71418662    -0.23900
H371        H  0.67594616  0.76572589  0.60655333     0.05300
H372        H  0.61345304  0.74979749  0.59290363     0.08500
H373        H  0.65449606  0.69835923  0.60643059     0.08500
H374        H  0.59230307  0.77804855  0.72979035     0.08500
H375        H  0.52904429  0.75517052  0.71894765     0.08500
H376        H  0.54695468  0.82300856  0.71453233     0.05200
C377        C  0.94888586  0.37027190  0.02415264    -0.20600
C378        C  0.99368289  0.40241476  0.02410092    -0.07100
C379        C  0.03367917  0.39388226  0.04287418     0.13700
C380        C  0.02678689  0.35519330  0.06192437    -0.20600
C381        C  0.98034788  0.32506485  0.06345978    -0.07100
C382        C  0.94102750  0.33239650  0.04376123     0.13700
C383        C  0.88958783  0.30292434  0.04351595    -0.24000
H384        H  0.91834547  0.37723721  0.00962556     0.15000
H385        H  0.05799741  0.34956112  0.07604734     0.15000
C386        C  0.08281978  0.42700248  0.04374976    -0.23900
H387        H  0.86390261  0.31470755  0.02682868     0.05300
H388        H  0.86748934  0.31162399  0.06173262     0.08500
H389        H  0.89709692  0.26024229  0.04159370     0.08500
H390        H  0.07208775  0.46915004  0.04498787     0.08500
H391        H  0.10654831  0.41963775  0.02593974     0.08500
H392        H  0.10813902  0.41743453  0.06091370     0.05200
C393        C  0.95416335  0.59169348  0.94154801    -0.20600
C394        C  0.99494998  0.58932209  0.96002380    -0.07100
C395        C  0.03523854  0.62731286  0.95941630     0.13700
C396        C  0.03633796  0.66377694  0.93888140    -0.20600
C397        C  0.99715724  0.66466714  0.91917588    -0.07100
C398        C  0.95437345  0.62864829  0.92119385     0.13700
C399        C  0.90862310  0.62764530  0.90223736    -0.24000
H400        H  0.92306247  0.56262159  0.94241002     0.15000
H401        H  0.06856770  0.69158330  0.93837283     0.15000
C402        C  0.07719672  0.63080733  0.98028200    -0.23900
H403        H  0.87835825  0.59832002  0.90785359     0.05300
H404        H  0.92281375  0.61669583  0.88240689     0.08500
H405        H  0.88873899  0.66647986  0.90193167     0.08500
H406        H  0.07684553  0.67070743  0.98894891     0.08500
H407        H  0.07054217  0.60273278  0.99647936     0.08500
H408        H  0.11664413  0.62332848  0.97151005     0.05200
C409        C  0.07312719  0.60646867  0.60486019    -0.20600
C410        C  0.08744503  0.65787470  0.59821512    -0.07100
C411        C  0.14122092  0.66921691  0.59318534     0.13700
C412        C  0.17891685  0.62885378  0.59492570    -0.20600
C413        C  0.16470477  0.57756264  0.60189526    -0.07100
C414        C  0.11085308  0.56617557  0.60677035     0.13700
C415        C  0.09230121  0.51162001  0.61325786    -0.24000
H416        H  0.03191220  0.59770040  0.60854205     0.15000
H417        H  0.22014964  0.63774432  0.59134531     0.15000
C418        C  0.15981521  0.72396830  0.58714192    -0.23900
H419        H  0.04851448  0.50948311  0.61443799     0.05300
H420        H  0.10814925  0.49925781  0.63258403     0.08500
H421        H  0.10549688  0.48382054  0.59783514     0.08500
H422        H  0.14725908  0.75116061  0.60296009     0.08500
H423        H  0.14332134  0.73726210  0.56812568     0.08500
H424        H  0.20356563  0.72601211  0.58562091     0.05200
C425        C  0.42480374  0.49299472  0.55822428    -0.20600
C426        C  0.41244025  0.49827532  0.53156881    -0.07100
C427        C  0.35916772  0.50533341  0.52388792     0.13700
C428        C  0.31993337  0.50855616  0.54322150    -0.20600
C429        C  0.33257257  0.50423064  0.56992425    -0.07100
C430        C  0.38592155  0.49766963  0.57757263     0.13700
C431        C  0.40267813  0.49842705  0.60595797    -0.24000
H432        H  0.46524048  0.48516835  0.56397143     0.15000
H433        H  0.27891344  0.51315073  0.53743128     0.15000
C434        C  0.34319918  0.50852838  0.49544002    -0.23900
H435        H  0.44639301  0.49712619  0.60805532     0.05300
H436        H  0.38661981  0.46423274  0.61653444     0.08500
H437        H  0.38838355  0.53503820  0.61537730     0.08500
H438        H  0.35189907  0.47094449  0.48542777     0.08500
H439        H  0.36485003  0.54035080  0.48547638     0.08500
H440        H  0.30021758  0.51641472  0.49317661     0.05200
C441        C  0.31292994  0.85676095  0.58956822    -0.20600
C442        C  0.32208353  0.90428986  0.60276040    -0.07100
C443        C  0.37282549  0.91351271  0.61354751     0.13700
C444        C  0.41194964  0.87474071  0.61139295    -0.20600
C445        C  0.40250052  0.82649596  0.59888819    -0.07100
C446        C  0.35218379  0.81788303  0.58737085     0.13700
C447        C  0.33846958  0.76782239  0.57324172    -0.24000
H448        H  0.27426088  0.84941538  0.58123791     0.15000
H449        H  0.45052044  0.88238266  0.61980140     0.15000
C450        C  0.38705313  0.96421647  0.62697377    -0.23900
H451        H  0.29680041  0.76772155  0.56632222     0.05300
H452        H  0.34364267  0.73385800  0.58660175     0.08500
H453        H  0.36395809  0.76313261  0.55570862     0.08500
H454        H  0.36434324  0.96830638  0.64544057     0.08500
H455        H  0.37870997  0.99779905  0.61375222     0.08500
H456        H  0.42961915  0.96575375  0.63229915     0.05200
C457        C  0.12781380  0.02555937  0.56198854    -0.20600
C458        C  0.15976121  0.98048020  0.56434763    -0.07100
C459        C  0.15210712  0.93876570  0.54622704     0.13700
C460        C  0.11360535  0.94382723  0.52658349    -0.20600
C461        C  0.08058299  0.98784750  0.52501634    -0.07100
C462        C  0.08857881  0.02992702  0.54261134     0.13700
C463        C  0.05554566  0.07930712  0.54150708    -0.24000
H464        H  0.13355795  0.05802189  0.57535629     0.15000
H465        H  0.10845873  0.91253149  0.51248577     0.15000
C466        C  0.18240633  0.88779317  0.54756564    -0.23900
H467        H  0.06402763  0.10566911  0.55830616     0.05300
H468        H  0.01280504  0.06990287  0.54195233     0.08500
H469        H  0.06438119  0.10148051  0.52339078     0.08500
H470        H  0.17748552  0.86976133  0.56720929     0.08500
H471        H  0.22482884  0.89463131  0.54334788     0.08500
H472        H  0.16804646  0.85894176  0.53290608     0.05200
C473        C  0.27078282  0.34000821  0.66510918    -0.20600
C474        C  0.23822021  0.34932219  0.68675400    -0.07100
C475        C  0.20742448  0.39547356  0.68776755     0.13700
C476        C  0.21107180  0.43187004  0.66726852    -0.20600
C477        C  0.24394184  0.42302054  0.64544351    -0.07100
C478        C  0.27342005  0.37548558  0.64418573     0.13700
C479        C  0.30625556  0.36010414  0.62072991    -0.24000
H480        H  0.29360606  0.30398323  0.66436198     0.15000
H481        H  0.18819144  0.46775139  0.66849028     0.15000
C482        C  0.17185235  0.40734236  0.71071951    -0.23900
H483        H  0.32216868  0.31963920  0.62252375     0.05300
H484        H  0.34068483  0.38639495  0.61881131     0.08500
H485        H  0.28168122  0.36154934  0.60268714     0.08500
H486        H  0.19514831  0.40705612  0.72917690     0.08500
H487        H  0.14002231  0.37767223  0.71193305     0.08500
H488        H  0.15267301  0.44637884  0.70884042     0.05200
C489        C  0.18941256  0.11088149  0.67788823    -0.20600
C490        C  0.23822449  0.12856542  0.68774135    -0.07100
C491        C  0.28546528  0.10755935  0.67686721     0.13700
C492        C  0.28225145  0.07027843  0.65672028    -0.20600
C493        C  0.23357012  0.05306425  0.64674907    -0.07100
C494        C  0.18637169  0.07372883  0.65757909     0.13700
C495        C  0.13255607  0.05614426  0.64845132    -0.24000
H496        H  0.15305661  0.12639167  0.68604011     0.15000
H497        H  0.31847030  0.05505982  0.64831414     0.15000
C498        C  0.33978845  0.12398058  0.68590019    -0.23900
H499        H  0.10036425  0.07373947  0.66037643     0.05300
H500        H  0.12944248  0.01289704  0.65009916     0.08500
H501        H  0.12589102  0.06837301  0.62784549     0.08500
H502        H  0.34502680  0.11448104  0.70697994     0.08500
H503        H  0.34518230  0.16660356  0.68258722     0.08500
H504        H  0.37166665  0.10334218  0.67501749     0.05200
C505        C  0.36003826  0.58440573  0.86217338    -0.20600
C506        C  0.31283880  0.59569772  0.87559250    -0.07100
C507        C  0.30899655  0.64401989  0.88940917     0.13700
C508        C  0.35131453  0.67944191  0.88857294    -0.20600
C509        C  0.39809414  0.66847675  0.87478859    -0.07100
C510        C  0.40261251  0.61959481  0.86167547     0.13700
C511        C  0.45222481  0.60302019  0.84751065    -0.24000
H512        H  0.36399876  0.54736235  0.85198150     0.15000
H513        H  0.34737946  0.71657176  0.89865781     0.15000
C514        C  0.26070232  0.65979799  0.90492578    -0.23900
H515        H  0.44985056  0.56201361  0.84033158     0.05300
H516        H  0.48671768  0.60543295  0.86094500     0.08500
H517        H  0.45842086  0.62825196  0.83010155     0.08500
H518        H  0.25464093  0.63217531  0.92142827     0.08500
H519        H  0.22537643  0.66065254  0.89197762     0.08500
H520        H  0.26483969  0.69932862  0.91375420     0.05200
C521        C  0.05818205  0.51029772  0.92604467    -0.20600
C522        C  0.07517232  0.50668976  0.95219004    -0.07100
C523        C  0.12970360  0.51042369  0.95803027     0.13700
C524        C  0.16569264  0.51827841  0.93759181    -0.20600
C525        C  0.14868207  0.52116548  0.91149959    -0.07100
C526        C  0.09422237  0.51813796  0.90562107     0.13700
C527        C  0.07378190  0.52531437  0.87807956    -0.24000
H528        H  0.01636750  0.50740029  0.92165234     0.15000
H529        H  0.20764021  0.52019444  0.94188872     0.15000
C530        C  0.15048737  0.50544603  0.98560120    -0.23900
H531        H  0.02988634  0.52480580  0.87736700     0.05300
H532        H  0.08839137  0.49347544  0.86520662     0.08500
H533        H  0.08718226  0.56363672  0.87029793     0.08500
H534        H  0.14427535  0.46498330  0.99261073     0.08500
H535        H  0.13016373  0.53331705  0.99886065     0.08500
H536        H  0.19357735  0.51339153  0.98667133     0.05200
C537        C  0.26514104  0.44195720  0.81360093    -0.20600
C538        C  0.23136890  0.43759873  0.83540028    -0.07100
C539        C  0.20057884  0.39119375  0.83808462     0.13700
C540        C  0.20363140  0.35216108  0.81878839    -0.20600
C541        C  0.23733078  0.35678449  0.79725478    -0.07100
C542        C  0.26873335  0.40214679  0.79462382     0.13700
C543        C  0.30486772  0.40960396  0.77146694    -0.24000
H544        H  0.28881767  0.47690371  0.81122446     0.15000
H545        H  0.17998151  0.31703300  0.82072228     0.15000
C546        C  0.16524386  0.38074897  0.86131602    -0.23900
H547        H  0.32443014  0.44847315  0.77187080     0.05300
H548        H  0.28191177  0.40675715  0.75296270     0.08500
H549        H  0.33637348  0.37924692  0.77161363     0.08500
H550        H  0.13180875  0.40892526  0.86155242     0.08500
H551        H  0.18839662  0.38341453  0.87977650     0.08500
H552        H  0.14768491  0.34095434  0.86061785     0.05200
C553        C  0.11651598  0.90790740  0.87615812    -0.20600
C554        C  0.16918792  0.89217217  0.87992931    -0.07100
C555        C  0.18067972  0.83849697  0.88422538     0.13700
C556        C  0.13913732  0.80205658  0.88436213    -0.20600
C557        C  0.08660158  0.81785535  0.88019640    -0.07100
C558        C  0.07503546  0.87158494  0.87651296     0.13700
C559        C  0.01893498  0.89121070  0.87409298    -0.24000
H560        H  0.10768711  0.94910481  0.87329352     0.15000
H561        H  0.14780124  0.76080554  0.88717306     0.15000
C562        C  0.23664105  0.81899105  0.88753339    -0.23900
H563        H  0.01711620  0.93463869  0.87304489     0.05300
H564        H  0.99574804  0.87859449  0.89142093     0.08500
H565        H  0.00028889  0.87575081  0.85605123     0.08500
H566        H  0.25389255  0.83448485  0.90595996     0.08500
H567        H  0.26101750  0.83156121  0.87060443     0.08500
H568        H  0.23841041  0.77561214  0.88853839     0.05200
C569        C  0.19826398  0.05832058  0.82492655    -0.20600
C570        C  0.24524509  0.05085018  0.83926691    -0.07100
C571        C  0.28936827  0.08325699  0.83344385     0.13700
C572        C  0.28464293  0.12193488  0.81406986    -0.20600
C573        C  0.23761180  0.12970474  0.79996677    -0.07100
C574        C  0.19376273  0.09699240  0.80542477     0.13700
C575        C  0.14225529  0.10144845  0.79063717    -0.24000
H576        H  0.16437292  0.03388162  0.82907550     0.15000
H577        H  0.31840804  0.14657659  0.80993972     0.15000
C578        C  0.34239339  0.07739689  0.84678739    -0.23900
H579        H  0.11334377  0.07133079  0.79691266     0.05300
H580        H  0.14931639  0.09591535  0.76933787     0.08500
H581        H  0.12394209  0.14035364  0.79425337     0.08500
H582        H  0.35727477  0.03672646  0.84432967     0.08500
H583        H  0.33902386  0.08751689  0.86787026     0.08500
H584        H  0.37258676  0.10395347  0.83834569     0.05200
C585        C  0.45055505  0.87077771  0.95394726    -0.20600
C586        C  0.49493686  0.90351389  0.95400558    -0.07100
C587        C  0.53526204  0.89500803  0.93539826     0.13700
C588        C  0.52957758  0.85459910  0.91703827    -0.20600
C589        C  0.48400850  0.82298001  0.91600584    -0.07100
C590        C  0.44357239  0.83178261  0.93484974     0.13700
C591        C  0.39212961  0.80212776  0.93485865    -0.24000
H592        H  0.42038529  0.87671574  0.96870021     0.15000
H593        H  0.56130766  0.84817969  0.90321671     0.15000
C594        C  0.58388037  0.92903962  0.93419289    -0.23900
H595        H  0.36479188  0.81634834  0.95034849     0.05300
H596        H  0.39958706  0.75994792  0.93866321     0.08500
H597        H  0.37167550  0.80749571  0.91576672     0.08500
H598        H  0.60825639  0.92371612  0.95205617     0.08500
H599        H  0.57244666  0.97080501  0.93231519     0.08500
H600        H  0.60922956  0.91900561  0.91714741     0.05200
C601        C  0.51937642  0.12408930  0.01972239    -0.20600
C602        C  0.49990173  0.07542054  0.02779698    -0.07100
C603        C  0.48179257  0.06896164  0.05364139     0.13700
C604        C  0.48653035  0.11051180  0.07135929    -0.20600
C605        C  0.50755530  0.15911701  0.06374814    -0.07100
C606        C  0.52351656  0.16618069  0.03734154     0.13700
C607        C  0.54330708  0.21794230  0.02721810    -0.24000
H608        H  0.53214850  0.12877977  0.99958893     0.15000
H609        H  0.47397597  0.10466679  0.09140075     0.15000
C610        C  0.45634863  0.01868552  0.06237860    -0.23900
H611        H  0.55006816  0.21693945  0.00571680     0.05300
H612        H  0.58151140  0.22778583  0.03657425     0.08500
H613        H  0.51379156  0.24918427  0.03130662     0.08500
H614        H  0.48479614  0.98589499  0.06069319     0.08500
H615        H  0.42134440  0.01040205  0.04990830     0.08500
H616        H  0.44304261  0.02076980  0.08308884     0.05200
C617        C  0.36333356  0.96792054  0.96185479    -0.20600
C618        C  0.41271191  0.98615178  0.95349881    -0.07100
C619        C  0.42006670  0.00014052  0.92704103     0.13700
C620        C  0.37839760  0.99355415  0.90934162    -0.20600
C621        C  0.32899571  0.97443479  0.91740913    -0.07100
C622        C  0.32135392  0.96142103  0.94412082     0.13700
C623        C  0.26913260  0.94189683  0.95429206    -0.24000
H624        H  0.35813919  0.95754853  0.98229328     0.15000
H625        H  0.38466882  0.00381243  0.88898292     0.15000
C626        C  0.47087900  0.02306780  0.91692304    -0.23900
H627        H  0.26982105  0.93652657  0.97589456     0.05300
H628        H  0.25982444  0.90334761  0.94540128     0.08500
H629        H  0.23736715  0.97052746  0.94956059     0.08500
H630        H  0.46254789  0.06140403  0.90746816     0.08500
H631        H  0.50025339  0.03008708  0.93264371     0.08500
H632        H  0.48851204  0.99621020  0.90218426     0.05200
C633        C  0.90988241  0.12386108  0.10654343    -0.20600
C634        C  0.89323760  0.17620414  0.10786853    -0.07100
C635        C  0.83874424  0.18797627  0.10954345     0.13700
C636        C  0.80196887  0.14689225  0.10900011    -0.20600
C637        C  0.81872701  0.09452934  0.10753269    -0.07100
C638        C  0.87325785  0.08279790  0.10628734     0.13700
C639        C  0.89286260  0.02721785  0.10371367    -0.24000
H640        H  0.95180225  0.11516087  0.10531257     0.15000
H641        H  0.76003306  0.15554226  0.11020817     0.15000
C642        C  0.81955892  0.24341853  0.11312015    -0.23900
H643        H  0.93658752  0.02538813  0.10191360     0.05300
H644        H  0.87543034  0.00893144  0.08595794     0.08500
H645        H  0.88158245  0.00418807  0.12121716     0.08500
H646        H  0.82900297  0.26693789  0.09555783     0.08500
H647        H  0.83887499  0.26108502  0.13055019     0.08500
H648        H  0.77620183  0.24517102  0.11625370     0.05200
C649        C  0.61770208  0.03792134  0.02759230    -0.20600
C650        C  0.58392819  0.99454562  0.02846307    -0.07100
C651        C  0.59257522  0.95548673  0.04761828     0.13700
C652        C  0.63357568  0.96188553  0.06578197    -0.22200
C653        C  0.66567445  0.00693835  0.06611923    -0.07100
C654        C  0.65761599  0.04546632  0.04636151     0.13700
C655        C  0.68939269  0.09525842  0.04484278    -0.24000
H656        H  0.61201555  0.06677706  0.01226717     0.15000
H657        H  0.63931067  0.93142702  0.08031365     0.15000
C658        C  0.55860088  0.90729699  0.05029799    -0.23900
H659        H  0.67622183  0.12079857  0.02843574     0.05300
H660        H  0.73171750  0.08585802  0.04148289     0.08500
H661        H  0.68460187  0.11814831  0.06320308     0.08500
H662        H  0.52443741  0.90667968  0.03674310     0.08500
H663        H  0.54247863  0.90531320  0.07050639     0.08500
H664        H  0.58302352  0.87179320  0.04670414     0.05200
C665        C  0.68499246  0.34364025  0.09716256    -0.20600
C666        C  0.67169250  0.39462707  0.10533292    -0.07100
C667        C  0.61835835  0.40588344  0.11187930     0.13700
C668        C  0.58055347  0.36582096  0.11060625    -0.20600
C669        C  0.59400342  0.31475989  0.10280202    -0.07100
C670        C  0.64708446  0.30357937  0.09586396     0.13700
C671        C  0.66482313  0.24927673  0.08808686    -0.24000
H672        H  0.72571404  0.33471478  0.09222307     0.15000
H673        H  0.53984692  0.37456131  0.11566327     0.15000
C674        C  0.60019246  0.46009448  0.11955598    -0.23900
H675        H  0.70802501  0.24738203  0.08447730     0.05300
H676        H  0.64532288  0.23729013  0.06961774     0.08500
H677        H  0.65524195  0.22097378  0.10388442     0.08500
H678        H  0.61185408  0.48876444  0.10427954     0.08500
H679        H  0.61762373  0.47116816  0.13872126     0.08500
H680        H  0.55655240  0.46233253  0.12172327     0.05200
C681        C  0.92868289  0.47909950  0.05794900    -0.20600
C682        C  0.91376231  0.48508306  0.03162348    -0.07100
C683        C  0.85980688  0.48103291  0.02463739     0.13700
C684        C  0.82190496  0.47406202  0.04438301    -0.20600
C685        C  0.83687761  0.46935656  0.07075209    -0.07100
C686        C  0.89108290  0.46911067  0.07741444     0.13700
C687        C  0.90967399  0.45497325  0.10454178    -0.24000
H688        H  0.97021991  0.48053426  0.06312759     0.15000
H689        H  0.78030511  0.47296771  0.03926897     0.15000
C690        C  0.84221868  0.48251353  0.99640298    -0.23900
H691        H  0.95350043  0.45325511  0.10580171     0.05300
H692        H  0.89407491  0.41587806  0.11000552     0.08500
H693        H  0.89583166  0.48431421  0.11879233     0.08500
H694        H  0.86282051  0.45129492  0.98516851     0.08500
H695        H  0.85123786  0.52116144  0.98761965     0.08500
H696        H  0.79898609  0.47605915  0.99448133     0.05200
C697        C  0.87503309  0.41390891  0.37500417    -0.20600
C698        C  0.82295955  0.40094740  0.38183152    -0.07100
C699        C  0.81106984  0.34840618  0.38838773     0.13700
C700        C  0.85138949  0.31040213  0.38760959    -0.20600
C701        C  0.90320547  0.32312670  0.38016066    -0.07100
C702        C  0.91529626  0.37593060  0.37412053     0.13700
C703        C  0.97059592  0.39315745  0.36735773    -0.24000
H704        H  0.88430893  0.45422479  0.37025389     0.15000
H705        H  0.84197844  0.27003976  0.39216908     0.15000
C706        C  0.75571668  0.33135321  0.39505686    -0.23900
H707        H  0.97333453  0.43641005  0.36547269     0.05300
H708        H  0.98282915  0.37614887  0.34829756     0.08500
H709        H  0.99851439  0.38068275  0.38299660     0.08500
H710        H  0.72822891  0.34209724  0.37891948     0.08500
H711        H  0.74267223  0.35007321  0.41358706     0.08500
H712        H  0.75343396  0.28833977  0.39788719     0.05200
C713        C  0.66940082  0.45987156  0.44124638    -0.20600
C714        C  0.66226960  0.48674552  0.41738966    -0.07100
C715        C  0.61408505  0.51473367  0.41329414     0.13700
C716        C  0.57559829  0.51516183  0.43304203    -0.20600
C717        C  0.58257930  0.48715211  0.45631457    -0.07100
C718        C  0.63025134  0.45983514  0.46069346     0.13700
C719        C  0.64017644  0.43120197  0.48598464    -0.24000
H720        H  0.70595979  0.43880822  0.44485695     0.15000
H721        H  0.53908239  0.53682689  0.43017231     0.15000
C722        C  0.60132850  0.54319920  0.38816239    -0.23900
H723        H  0.68037013  0.41357330  0.48665081     0.05300
H724        H  0.61125095  0.39918870  0.48800688     0.08500
H725        H  0.63624439  0.45862658  0.50276942     0.08500
H726        H  0.60405840  0.51566964  0.37136671     0.08500
H727        H  0.62866823  0.57664178  0.38550377     0.08500
H728        H  0.56058357  0.55960246  0.38819402     0.05200
C729        C  0.76809315  0.89939313  0.19018583    -0.20600
C730        C  0.73279162  0.85775881  0.18696041    -0.07100
C731        C  0.69948473  0.85661269  0.16478013     0.13700
C732        C  0.70328060  0.89662338  0.14607572    -0.20600
C733        C  0.73905697  0.93854802  0.14891790    -0.07100
C734        C  0.77134506  0.94017613  0.17179606     0.13700
C735        C  0.80901281  0.98436729  0.17759082    -0.24000
H736        H  0.79312435  0.90016380  0.20746333     0.15000
H737        H  0.67806010  0.89453331  0.12893499     0.15000
C738        C  0.66122428  0.81235502  0.16015717    -0.23900
H739        H  0.82874332  0.97957012  0.19691797     0.05300
H740        H  0.78720436  0.02217946  0.17808371     0.08500
H741        H  0.84064652  0.98549028  0.16260902     0.08500
H742        H  0.63085926  0.81191578  0.17581941     0.08500
H743        H  0.68283091  0.77439601  0.15998530     0.08500
H744        H  0.64023648  0.81642464  0.14111929     0.05200
C745        C  0.78831947  0.61162302  0.17809746    -0.20600
C746        C  0.73851803  0.63290086  0.18414635    -0.07100
C747        C  0.69344843  0.61367460  0.17064762     0.13700
C748        C  0.69968877  0.57332927  0.15211037    -0.20600
C749        C  0.74957610  0.55195544  0.14629166    -0.07100
C750        C  0.79453659  0.57191184  0.15941420     0.13700
C751        C  0.84930892  0.55105827  0.15452197    -0.24000
H752        H  0.82309950  0.62592569  0.18820693     0.15000
H753        H  0.66525575  0.55875666  0.14180989     0.15000
C754        C  0.63870765  0.63537528  0.17521034    -0.23900
H755        H  0.87894795  0.56843685  0.16802232     0.05300
H756        H  0.86153845  0.56125746  0.13430971     0.08500
H757        H  0.84993931  0.50799723  0.15754163     0.08500
H758        H  0.63812226  0.67808173  0.17109132     0.08500
H759        H  0.62643344  0.62797919  0.19574730     0.08500
H760        H  0.60891616  0.61671027  0.16223371     0.05200
C761        C  0.78720208  0.60997574  0.30414262    -0.20600
C762        C  0.73777710  0.63068825  0.29658729    -0.07100
C763        C  0.69177963  0.61307752  0.30974064     0.13700
C764        C  0.69673228  0.57575051  0.32971242    -0.20600
C765        C  0.74603480  0.55546184  0.33743496    -0.07100
C766        C  0.79204770  0.57281888  0.32433601     0.13700
C767        C  0.84656347  0.55393272  0.33186587    -0.24000
H768        H  0.82265121  0.62318643  0.29430269     0.15000
H769        H  0.66130998  0.56206959  0.33933524     0.15000
C770        C  0.63708827  0.63336892  0.30342134    -0.23900
H771        H  0.87791598  0.57435781  0.32064449     0.05300
H772        H  0.85055227  0.51146729  0.32764990     0.08500
H773        H  0.85371888  0.56138226  0.35301839     0.08500
H774        H  0.62677867  0.62388149  0.28280630     0.08500
H775        H  0.63532590  0.67635732  0.30663825     0.08500
H776        H  0.60638507  0.61542872  0.31607004     0.05200
C777        C  0.66525997  0.12380498  0.39545881    -0.20600
C778        C  0.64958429  0.07353723  0.38740628    -0.07100
C779        C  0.59575654  0.06525586  0.38081867     0.13700
C780        C  0.56022229  0.10757716  0.38114227    -0.20600
C781        C  0.57641171  0.15819734  0.38801553    -0.07100
C782        C  0.62957836  0.16619515  0.39586277     0.13700
C783        C  0.64992410  0.21941274  0.40366000    -0.24000
H784        H  0.70623274  0.13046031  0.40069372     0.15000
H785        H  0.51932502  0.10113128  0.37567026     0.15000
C786        C  0.57481280  0.01213365  0.37354127    -0.23900
H787        H  0.69296517  0.21842554  0.40790352     0.05300
H788        H  0.62984570  0.23301481  0.42175347     0.08500
H789        H  0.64306723  0.24789647  0.38755120     0.08500
H790        H  0.58619178  0.98298368  0.38870611     0.08500
H791        H  0.59049394  0.00070619  0.35409125     0.08500
H792        H  0.53100380  0.01204946  0.37197817     0.05200
C793        C  0.81176283  0.00628106  0.44283398    -0.20600
C794        C  0.81984195  0.99582252  0.41610624    -0.07100
C795        C  0.87162594  0.98355573  0.40723033     0.13700
C796        C  0.91327205  0.98110658  0.42538895    -0.20600
C797        C  0.90476687  0.99052717  0.45208570    -0.07100
C798        C  0.85350278  0.00336392  0.46095987     0.13700
C799        C  0.84287180  0.01460820  0.48947894    -0.24000
H800        H  0.77231806  0.01568734  0.44968644     0.15000
H801        H  0.95286592  0.97179438  0.41875373     0.15000
C802        C  0.88405140  0.97466726  0.37864957    -0.23900
H803        H  0.80095883  0.02578352  0.49286405     0.05300
H804        H  0.86814137  0.04732036  0.49632219     0.08500
H805        H  0.85144514  0.97929506  0.50143849     0.08500
H806        H  0.86983378  0.00846286  0.36685215     0.08500
H807        H  0.86522731  0.93807860  0.37164159     0.08500
H808        H  0.92723140  0.97048619  0.37525279     0.05200
C809        C  0.76958958  0.92307670  0.32339167    -0.20600
C810        C  0.72667526  0.92231098  0.34069655    -0.07100
C811        C  0.68647594  0.88476653  0.33733792     0.13700
C812        C  0.68937384  0.84985731  0.31615076    -0.20600
C813        C  0.73230957  0.85050351  0.29871395    -0.07100
C814        C  0.77318115  0.88761013  0.30248701     0.13700
C815        C  0.82018949  0.89108335  0.28443031    -0.24000
H816        H  0.80062234  0.95169483  0.32633393     0.15000
H817        H  0.65854975  0.82090390  0.31360825     0.15000
C818        C  0.64201696  0.87955359  0.35671095    -0.23900
H819        H  0.84625387  0.92449113  0.28955648     0.05300
H820        H  0.80658091  0.89673238  0.26391209     0.08500
H821        H  0.84442540  0.85488431  0.28590429     0.08500
H822        H  0.61751086  0.91539595  0.35652259     0.08500
H823        H  0.65829367  0.87325047  0.37669419     0.08500
H824        H  0.61584946  0.84603340  0.35192387     0.05200
loop_ 
_geom_bond_atom_site_label_1 
_geom_bond_atom_site_label_2 
_geom_bond_distance 
_geom_bond_site_symmetry_2 
_ccdc_geom_bond_type 
C1            N2   1.357       .  A
C1            N6   1.353       .  A
C1          C810   1.472       .  S
N2            C3   1.361   1_565  A
C3            N4   1.364       .  A
C3          C778   1.491       .  S
N4            C5   1.362   1_545  A
C5            N6   1.354       .  A
C5          C794   1.484       .  S
O7           V15   1.898       .  S
O7           C17   1.265       .  A
O8           V15   1.896       .  S
O8           C18   1.263       .  A
O9           V15   1.892       .  S
O9           C19   1.262       .  A
O10          V15   1.894       .  S
O10          C20   1.265       .  A
O11          V16   1.900       .  S
O11          C20   1.263       .  A
O12          V16   1.899       .  S
O12          C19   1.265       .  A
O13          V16   1.898       .  S
O13          C18   1.263       .  A
O14          V16   1.895       .  S
O14          C17   1.263       .  A
V15          V16   2.084       .  T
C17         C762   1.491       .  S
C18         C730   1.476       .  S
C19         C813   1.481       .  S
C20         C746   1.491       .  S
C21          N22   1.357       .  A
C21          N26   1.357       .  A
C21         C765   1.487       .  S
N22          C23   1.360       .  A
C23          N24   1.360       .  A
C23         C698   1.485       .  S
N24          C25   1.361       .  A
C25          N26   1.355       .  A
C25         C714   1.494       .  S
C27          N28   1.359       .  A
C27          N32   1.357       .  A
C27         C749   1.488       .  S
N28          C29   1.360       .  A
C29          N30   1.361       .  A
C29         C666   1.490       .  S
N30          C31   1.359       .  A
C31          N32   1.357       .  A
C31         C685   1.475       .  S
C33          N34   1.357   1_565  A
C33          N38   1.358       .  A
C33         C733   1.498       .  S
N34          C35   1.357       .  A
C35          N36   1.357       .  A
C35         C637   1.472       .  S
N36          C37   1.358       .  A
C37          N38   1.359   1_545  A
C37         C653   1.497       .  S
C39         C602   1.478       .  S
C39          C40   1.415   1_545  A
C39          C44   1.398   1_554  A
C40         C650   1.486       .  S
C40          C41   1.402   1_554  A
C41          C42   1.402       .  A
C41          H46   1.083       .  S
C42         C586   1.487       .  S
C42          C43   1.416       .  A
C43         C618   1.477       .  S
C43          C44   1.398   1_565  A
C44          H45   1.084       .  S
C47          N48   1.353       .  A
C47          N52   1.362   1_545  A
C47         C570   1.496       .  S
N48          C49   1.354   1_545  A
C49          N50   1.357       .  A
C49         C621   1.481       .  S
N50          C51   1.359       .  A
C51          N52   1.362       .  A
C51         C554   1.481       .  S
C53          N54   1.353       .  A
C53          N58   1.364       .  A
C53         C538   1.497       .  S
N54          C55   1.351       .  A
C55          N56   1.354       .  A
C55         C525   1.469       .  S
N56          C57   1.357       .  A
C57          N58   1.366       .  A
C57         C506   1.498       .  S
O59          V67   1.899       .  S
O59          C69   1.263       .  A
O60          V67   1.895       .  S
O60          C70   1.263       .  A
O61          V67   1.895       .  S
O61          C71   1.264       .  A
O62          V67   1.899       .  S
O62          C72   1.266       .  A
O63          V68   1.898       .  S
O63          C72   1.263       .  A
O64          V68   1.896       .  S
O64          C71   1.263       .  A
O65          V68   1.905       .  S
O65          C70   1.267       .  A
O66          V68   1.901       .  S
O66          C69   1.266       .  A
V67          V68   2.083       .  T
C69         C541   1.479       .  S
C70         C490   1.495       .  S
C71         C474   1.472       .  S
C72         C573   1.490       .  S
C73          N74   1.359       .  A
C73          N78   1.359   1_545  A
C73         C493   1.489       .  S
N74          C75   1.362   1_545  A
C75          N76   1.356       .  A
C75         C458   1.495       .  S
N76          C77   1.356       .  A
C77          N78   1.357       .  A
C77         C442   1.489       .  S
C79          N80   1.360       .  A
C79          N84   1.355       .  A
C79         C477   1.491       .  S
N80          C81   1.359       .  A
C81          N82   1.359       .  A
C81         C413   1.484       .  S
N82          C83   1.357       .  A
C83          N84   1.355       .  A
C83         C429   1.474       .  S
C85         C378   1.486       .  S
C85          C86   1.416       .  A
C85          C90   1.401   1_654  A
C86         C682   1.485       .  S
C86          C87   1.402   1_554  A
C87          C88   1.400       .  A
C87          H92   1.084       .  S
C88         C394   1.484       .  S
C88          C89   1.416   1_655  A
C89         C522   1.483       .  S
C89          C90   1.402       .  A
C90          H91   1.083       .  S
O93         V101   1.896       .  S
O93         C103   1.263       .  A
O94         V101   1.894       .  S
O94         C104   1.262       .  A
O95         V101   1.899       .  S
O95         C105   1.266       .  A
O96         V101   1.899       .  S
O96         C106   1.264       .  A
O97         V102   1.895       .  S
O97         C106   1.265       .  A
O98         V102   1.894       .  S
O98         C105   1.263       .  A
O99         V102   1.895       .  S
O99         C104   1.263       .  A
O100        V102   1.899       .  S
O100        C103   1.264       .  A
V101        V102   2.084       .  T
C103        C330   1.473       .  S
C104        C362   1.462       .  S
C105        C346   1.491       .  S
C106        C314   1.491       .  S
C107        N108   1.358       .  A
C107        N112   1.354       .  A
C107        C349   1.488       .  S
N108        C109   1.358       .  A
C109        N110   1.362       .  A
C109        C509   1.495       .  S
N110        C111   1.359       .  A
C111        N112   1.358       .  A
C111        C589   1.497       .  S
C113        N114   1.359       .  A
C113        N118   1.356   1_655  A
C113        C333   1.496       .  S
N114        C115   1.358   1_655  A
C115        N116   1.362       .  A
C115        C397   1.500   1_455  S
N116        C117   1.359       .  A
C117        N118   1.356       .  A
C117        C557   1.478       .  S
C119        N120   1.353       .  A
C119        N124   1.352       .  A
C119        C365   1.474       .  S
N120        C121   1.360       .  A
C121        N122   1.363       .  A
C121        C445   1.493       .  S
N122        C123   1.363       .  A
C123        N124   1.353       .  A
C123        C298   1.487       .  S
C125        N126   1.356       .  A
C125        N130   1.356   1_655  A
C125        C317   1.482       .  S
N126        C127   1.358   1_655  A
C127        N128   1.359       .  A
C127        C285   1.486       .  S
N128        C129   1.360       .  A
C129        N130   1.358       .  A
C129        C410   1.483       .  S
C131        N132   1.357       .  A
C131        N136   1.359   1_455  A
C131        C266   1.501       .  S
N132        C133   1.361   1_455  A
C133        N134   1.358       .  A
C133        C381   1.500       .  S
N134        C135   1.358       .  A
C135        N136   1.358       .  A
C135        C634   1.473       .  S
C137        N138   1.355       .  A
C137        N142   1.360       .  A
C137        C253   1.490       .  S
N138        C139   1.357       .  A
C139        N140   1.358       .  A
C139        C605   1.486       .  S
N140        C141   1.359       .  A
C141        N142   1.361       .  A
C141        C669   1.487       .  S
O143        V151   1.892       .  S
O143        C153   1.262       .  A
O144        V151   1.896       .  S
O144        C154   1.263       .  A
O145        V151   1.899       .  S
O145        C155   1.265       .  A
O146        V151   1.899       .  S
O146        C156   1.264       .  A
O147        V152   1.899       .  S
O147        C156   1.263       .  A
O148        V152   1.900       .  S
O148        C155   1.264       .  A
O149        V152   1.902       .  S
O149        C154   1.267       .  A
O150        V152   1.902       .  S
O150        C153   1.267       .  A
V151        V152   2.085       .  T
C153        C221   1.487       .  S
C154        C250   1.493       .  S
C155        C269   1.476       .  S
C156        C237   1.473       .  S
C157        N158   1.354       .  A
C157        N162   1.356   1_455  A
C157        C218   1.477       .  S
N158        C159   1.358   1_455  A
C159        N160   1.361       .  A
C159        C202   1.499       .  S
N160        C161   1.361       .  A
C161        N162   1.357       .  A
C161        C701   1.486       .  S
C163        N164   1.355       .  A
C163        N168   1.361       .  A
C163        C234   1.490       .  S
N164        C165   1.355       .  A
C165        N166   1.357       .  A
C165        C186   1.478       .  S
N166        C167   1.358       .  A
C167        N168   1.363       .  A
C167        C781   1.486       .  S
C169        C797   1.483       .  S
C169        C170   1.412   1_565  A
C169        C174   1.401       .  A
C170        C205   1.483       .  S
C170        C171   1.402   1_655  A
C171        C172   1.403   1_545  A
C171        H176   1.083       .  S
C172        C461   1.489       .  S
C172        C173   1.418   1_455  A
C173        C282   1.484       .  S
C173        C174   1.401       .  A
C174        H175   1.084       .  S
C177        C189   1.484       .  S
C177        C178   1.416       .  A
C177        C182   1.400       .  A
C178        C717   1.481       .  S
C178        C179   1.401       .  A
C179        C180   1.399       .  A
C179        H184   1.085       .  S
C180        C301   1.481       .  S
C180        C181   1.415       .  A
C181        C426   1.483       .  S
C181        C182   1.400       .  A
C182        H183   1.083       .  S
C185        C186   1.404       .  A
C185        C190   1.404       .  A
C185        H192   1.084       .  S
C186        C187   1.415       .  A
C187        C188   1.400       .  A
C187        C194   1.508       .  S
C188        C189   1.401       .  A
C188        H193   1.083       .  S
C189        C190   1.415       .  A
C190        C191   1.509       .  S
C191        H195   1.111       .  S
C191        H196   1.108       .  S
C191        H197   1.106       .  S
C194        H198   1.107       .  S
C194        H199   1.110       .  S
C194        H200   1.111       .  S
C201        C202   1.413   1_455  A
C201        C206   1.401       .  A
C201        H208   1.083       .  S
C202        C203   1.424       .  A
C203        C204   1.405       .  A
C203        C210   1.508       .  S
C204        C205   1.400       .  A
C204        H209   1.083       .  S
C205        C206   1.407   1_655  A
C206        C207   1.509       .  S
C207        H211   1.111       .  S
C207        H212   1.110   1_545  S
C207        H213   1.109       .  S
C210        H214   1.110       .  S
C210        H215   1.110       .  S
C210        H216   1.111       .  S
C217        C218   1.401       .  A
C217        C222   1.403       .  A
C217        H224   1.084       .  S
C218        C219   1.413       .  A
C219        C220   1.403       .  A
C219        C226   1.508       .  S
C220        C221   1.406       .  A
C220        H225   1.084       .  S
C221        C222   1.421       .  A
C222        C223   1.509       .  S
C223        H227   1.111       .  S
C223        H228   1.110       .  S
C223        H229   1.111       .  S
C226        H230   1.110   1_455  S
C226        H231   1.109       .  S
C226        H232   1.111       .  S
C233        C234   1.408       .  A
C233        C238   1.405       .  A
C233        H240   1.084       .  S
C234        C235   1.421       .  A
C235        C236   1.403       .  A
C235        C242   1.509       .  S
C236        C237   1.399       .  A
C236        H241   1.085       .  S
C237        C238   1.413       .  A
C238        C239   1.508       .  S
C239        H243   1.110       .  S
C239        H244   1.111       .  S
C239        H245   1.108       .  S
C242        H246   1.107       .  S
C242        H247   1.110       .  S
C242        H248   1.111       .  S
C249        C250   1.405       .  A
C249        C254   1.403       .  A
C249        H256   1.084       .  S
C250        C251   1.422       .  A
C251        C252   1.405       .  A
C251        C258   1.508       .  S
C252        C253   1.404       .  A
C252        H257   1.084       .  S
C253        C254   1.419       .  A
C254        C255   1.508       .  S
C255        H259   1.111       .  S
C255        H260   1.110       .  S
C255        H261   1.109       .  S
C258        H262   1.110       .  S
C258        H263   1.110       .  S
C258        H264   1.111       .  S
C265        C266   1.411       .  A
C265        C270   1.404       .  A
C265        H272   1.084       .  S
C266        C267   1.426       .  A
C267        C268   1.403       .  A
C267        C274   1.506       .  S
C268        C269   1.398       .  A
C268        H273   1.085       .  S
C269        C270   1.414       .  A
C270        C271   1.509       .  S
C271        H275   1.110       .  S
C271        H276   1.111       .  S
C271        H277   1.106       .  S
C274        H278   1.109       .  S
C274        H279   1.110       .  S
C274        H280   1.111       .  S
C281        C282   1.402   1_455  A
C281        C286   1.405       .  A
C281        H288   1.084       .  S
C282        C283   1.409       .  A
C283        C284   1.401       .  A
C283        C290   1.505       .  S
C284        C285   1.407   1_655  A
C284        H289   1.084       .  S
C285        C286   1.418       .  A
C286        C287   1.507       .  S
C287        H291   1.111       .  S
C287        H292   1.110       .  S
C287        H293   1.108       .  S
C290        H294   1.110       .  S
C290        H295   1.104       .  S
C290        H296   1.111       .  S
C297        C298   1.407       .  A
C297        C302   1.405       .  A
C297        H304   1.084       .  S
C298        C299   1.423       .  A
C299        C300   1.400       .  A
C299        C306   1.510       .  S
C300        C301   1.397       .  A
C300        H305   1.084       .  S
C301        C302   1.410       .  A
C302        C303   1.504       .  S
C303        H307   1.111       .  S
C303        H308   1.105       .  S
C303        H309   1.110       .  S
C306        H310   1.110       .  S
C306        H311   1.109       .  S
C306        H312   1.111       .  S
C313        C314   1.408       .  A
C313        C318   1.403       .  A
C313        H320   1.084       .  S
C314        C315   1.420       .  A
C315        C316   1.403       .  A
C315        C322   1.508       .  S
C316        C317   1.403       .  A
C316        H321   1.084       .  S
C317        C318   1.414       .  A
C318        C319   1.508       .  S
C319        H323   1.111       .  S
C319        H324   1.109       .  S
C319        H325   1.110       .  S
C322        H326   1.110       .  S
C322        H327   1.110       .  S
C322        H328   1.111       .  S
C329        C330   1.400       .  A
C329        C334   1.405       .  A
C329        H336   1.085       .  S
C330        C331   1.409       .  A
C331        C332   1.402       .  A
C331        C338   1.509       .  S
C332        C333   1.410       .  A
C332        H337   1.080       .  S
C333        C334   1.424       .  A
C334        C335   1.508       .  S
C335        H339   1.111       .  S
C335        H340   1.110   1_655  S
C335        H341   1.107       .  S
C338        H342   1.110       .  S
C338        H343   1.111       .  S
C338        H344   1.111       .  S
C345        C346   1.406       .  A
C345        C350   1.403       .  A
C345        H352   1.083       .  S
C346        C347   1.420       .  A
C347        C348   1.403       .  A
C347        C354   1.509       .  S
C348        C349   1.404       .  A
C348        H353   1.083       .  S
C349        C350   1.418       .  A
C350        C351   1.509       .  S
C351        H355   1.111       .  S
C351        H356   1.108       .  S
C351        H357   1.110       .  S
C354        H358   1.110       .  S
C354        H359   1.110       .  S
C354        H360   1.111       .  S
C361        C362   1.398       .  A
C361        C366   1.398       .  A
C361        H368   1.085       .  S
C362        C363   1.411       .  A
C363        C364   1.402       .  A
C363        C370   1.508       .  S
C364        C365   1.405       .  A
C364        H369   1.084       .  S
C365        C366   1.416       .  A
C366        C367   1.509       .  S
C367        H371   1.111       .  S
C367        H372   1.107       .  S
C367        H373   1.110       .  S
C370        H374   1.108       .  S
C370        H375   1.110       .  S
C370        H376   1.110       .  S
C377        C378   1.402       .  A
C377        C382   1.406       .  A
C377        H384   1.084       .  S
C378        C379   1.408   1_655  A
C379        C380   1.398       .  A
C379        C386   1.507       .  S
C380        C381   1.409   1_455  A
C380        H385   1.077       .  S
C381        C382   1.425       .  A
C382        C383   1.506       .  S
C383        H387   1.111       .  S
C383        H388   1.107       .  S
C383        H389   1.110       .  S
C386        H390   1.110       .  S
C386        H391   1.106       .  S
C386        H392   1.111       .  S
C393        C394   1.397       .  A
C393        C398   1.403       .  A
C393        H400   1.085       .  S
C394        C395   1.410   1_655  A
C395        C396   1.402       .  A
C395        C402   1.505       .  S
C396        C397   1.411   1_455  A
C396        H401   1.083       .  S
C397        C398   1.427       .  A
C398        C399   1.507       .  S
C399        H403   1.111       .  S
C399        H404   1.109       .  S
C399        H405   1.110       .  S
C402        H406   1.110       .  S
C402        H407   1.108       .  S
C402        H408   1.110       .  S
C409        C410   1.405       .  A
C409        C414   1.404       .  A
C409        H416   1.084       .  S
C410        C411   1.416       .  A
C411        C412   1.404       .  A
C411        C418   1.509       .  S
C412        C413   1.405       .  A
C412        H417   1.084       .  S
C413        C414   1.416       .  A
C414        C415   1.509       .  S
C415        H419   1.111       .  S
C415        H420   1.109       .  S
C415        H421   1.110       .  S
C418        H422   1.110       .  S
C418        H423   1.108       .  S
C418        H424   1.111       .  S
C425        C426   1.401       .  A
C425        C430   1.400       .  A
C425        H432   1.081       .  S
C426        C427   1.413       .  A
C427        C428   1.403       .  A
C427        C434   1.508       .  S
C428        C429   1.403       .  A
C428        H433   1.084       .  S
C429        C430   1.413       .  A
C430        C431   1.508       .  S
C431        H435   1.111       .  S
C431        H436   1.106       .  S
C431        H437   1.110       .  S
C434        H438   1.108       .  S
C434        H439   1.106       .  S
C434        H440   1.111       .  S
C441        C442   1.407       .  A
C441        C446   1.406       .  A
C441        H448   1.083       .  S
C442        C443   1.416       .  A
C443        C444   1.401       .  A
C443        C450   1.509       .  S
C444        C445   1.408       .  A
C444        H449   1.083       .  S
C445        C446   1.419       .  A
C446        C447   1.508       .  S
C447        H451   1.111       .  S
C447        H452   1.110       .  S
C447        H453   1.110       .  S
C450        H454   1.109       .  S
C450        H455   1.110       .  S
C450        H456   1.111       .  S
C457        C458   1.409   1_545  A
C457        C462   1.404       .  A
C457        H464   1.083       .  S
C458        C459   1.424       .  A
C459        C460   1.402       .  A
C459        C466   1.509       .  S
C460        C461   1.400       .  A
C460        H465   1.083       .  S
C461        C462   1.415   1_565  A
C462        C463   1.511       .  S
C463        H467   1.111       .  S
C463        H468   1.109       .  S
C463        H469   1.108       .  S
C466        H470   1.110       .  S
C466        H471   1.109       .  S
C466        H472   1.111       .  S
C473        C474   1.399       .  A
C473        C478   1.402       .  A
C473        H480   1.085       .  S
C474        C475   1.411       .  A
C475        C476   1.403       .  A
C475        C482   1.508       .  S
C476        C477   1.409       .  A
C476        H481   1.083       .  S
C477        C478   1.423       .  A
C478        C479   1.509       .  S
C479        H483   1.111       .  S
C479        H484   1.106       .  S
C479        H485   1.110       .  S
C482        H486   1.110       .  S
C482        H487   1.109       .  S
C482        H488   1.111       .  S
C489        C490   1.408       .  A
C489        C494   1.407       .  A
C489        H496   1.083       .  S
C490        C491   1.421       .  A
C491        C492   1.403       .  A
C491        C498   1.509       .  S
C492        C493   1.404       .  A
C492        H497   1.083       .  S
C493        C494   1.416       .  A
C494        C495   1.508       .  S
C495        H499   1.111       .  S
C495        H500   1.110       .  S
C495        H501   1.109       .  S
C498        H502   1.110       .  S
C498        H503   1.110       .  S
C498        H504   1.111       .  S
C505        C506   1.406       .  A
C505        C510   1.405       .  A
C505        H512   1.083       .  S
C506        C507   1.424       .  A
C507        C508   1.405       .  A
C507        C514   1.510       .  S
C508        C509   1.405       .  A
C508        H513   1.083       .  S
C509        C510   1.420       .  A
C510        C511   1.508       .  S
C511        H515   1.111       .  S
C511        H516   1.110       .  S
C511        H517   1.109       .  S
C514        H518   1.110       .  S
C514        H519   1.110       .  S
C514        H520   1.110       .  S
C521        C522   1.404       .  A
C521        C526   1.401       .  A
C521        H528   1.084       .  S
C522        C523   1.414       .  A
C523        C524   1.400       .  A
C523        C530   1.506       .  S
C524        C525   1.400       .  A
C524        H529   1.084       .  S
C525        C526   1.412       .  A
C526        C527   1.507       .  S
C527        H531   1.111       .  S
C527        H532   1.108       .  S
C527        H533   1.110       .  S
C530        H534   1.105       .  S
C530        H535   1.107       .  S
C530        H536   1.111       .  S
C537        C538   1.408       .  A
C537        C542   1.406       .  A
C537        H544   1.083       .  S
C538        C539   1.427       .  A
C539        C540   1.403       .  A
C539        C546   1.510       .  S
C540        C541   1.397       .  A
C540        H545   1.085       .  S
C541        C542   1.413       .  A
C542        C543   1.508       .  S
C543        H547   1.111       .  S
C543        H548   1.110       .  S
C543        H549   1.109       .  S
C546        H550   1.108       .  S
C546        H551   1.110       .  S
C546        H552   1.111       .  S
C553        C554   1.403       .  A
C553        C558   1.403       .  A
C553        H560   1.084       .  S
C554        C555   1.417       .  A
C555        C556   1.406       .  A
C555        C562   1.508       .  S
C556        C557   1.403       .  A
C556        H561   1.084       .  S
C557        C558   1.414       .  A
C558        C559   1.508       .  S
C559        H563   1.111       .  S
C559        H564   1.110   1_455  S
C559        H565   1.107       .  S
C562        H566   1.109       .  S
C562        H567   1.110       .  S
C562        H568   1.109       .  S
C569        C570   1.407       .  A
C569        C574   1.406       .  A
C569        H576   1.083       .  S
C570        C571   1.424       .  A
C571        C572   1.402       .  A
C571        C578   1.510       .  S
C572        C573   1.403       .  A
C572        H577   1.084       .  S
C573        C574   1.419       .  A
C574        C575   1.508       .  S
C575        H579   1.111       .  S
C575        H580   1.110       .  S
C575        H581   1.110       .  S
C578        H582   1.110       .  S
C578        H583   1.110       .  S
C578        H584   1.111       .  S
C585        C586   1.402       .  A
C585        C590   1.404       .  A
C585        H592   1.083       .  S
C586        C587   1.411       .  A
C587        C588   1.401       .  A
C587        C594   1.510       .  S
C588        C589   1.411       .  A
C588        H593   1.081       .  S
C589        C590   1.422       .  A
C590        C591   1.508       .  S
C591        H595   1.111       .  S
C591        H596   1.110       .  S
C591        H597   1.110       .  S
C594        H598   1.108       .  S
C594        H599   1.108       .  S
C594        H600   1.111       .  S
C601        C602   1.401       .  A
C601        C606   1.405       .  A
C601        H608   1.084   1_554  S
C602        C603   1.407       .  A
C603        C604   1.399       .  A
C603        C610   1.506       .  S
C604        C605   1.407       .  A
C604        H609   1.082       .  S
C605        C606   1.419       .  A
C606        C607   1.507       .  S
C607        H611   1.111       .  S
C607        H612   1.107       .  S
C607        H613   1.110       .  S
C610        H614   1.105   1_545  S
C610        H615   1.110       .  S
C610        H616   1.111       .  S
C617        C618   1.402       .  A
C617        C622   1.404       .  A
C617        H624   1.084       .  S
C618        C619   1.409   1_565  A
C619        C620   1.397   1_545  A
C619        C626   1.507       .  S
C620        C621   1.406       .  A
C620        H625   1.083   1_565  S
C621        C622   1.417       .  A
C622        C623   1.507       .  S
C623        H627   1.111       .  S
C623        H628   1.109       .  S
C623        H629   1.110       .  S
C626        H630   1.111       .  S
C626        H631   1.107       .  S
C626        H632   1.110   1_545  S
C633        C634   1.401       .  A
C633        C638   1.402       .  A
C633        H640   1.084       .  S
C634        C635   1.412       .  A
C635        C636   1.405       .  A
C635        C642   1.506       .  S
C636        C637   1.403       .  A
C636        H641   1.084       .  S
C637        C638   1.412       .  A
C638        C639   1.507       .  S
C639        H643   1.111       .  S
C639        H644   1.110       .  S
C639        H645   1.108       .  S
C642        H646   1.106       .  S
C642        H647   1.110       .  S
C642        H648   1.109       .  S
C649        C650   1.402   1_545  A
C649        C654   1.404       .  A
C649        H656   1.083       .  S
C650        C651   1.413       .  A
C651        C652   1.400       .  A
C651        C658   1.510       .  S
C652        C653   1.411   1_565  A
C652        H657   1.084       .  S
C653        C654   1.422       .  A
C654        C655   1.509       .  S
C655        H659   1.111       .  S
C655        H660   1.110       .  S
C655        H661   1.110       .  S
C658        H662   1.106       .  S
C658        H663   1.111       .  S
C658        H664   1.110       .  S
C665        C666   1.406       .  A
C665        C670   1.406       .  A
C665        H672   1.084       .  S
C666        C667   1.419       .  A
C667        C668   1.404       .  A
C667        C674   1.508       .  S
C668        C669   1.404       .  A
C668        H673   1.084       .  S
C669        C670   1.417       .  A
C670        C671   1.509       .  S
C671        H675   1.109       .  S
C671        H676   1.106       .  S
C671        H677   1.110       .  S
C674        H678   1.110       .  S
C674        H679   1.109       .  S
C674        H680   1.111       .  S
C681        C682   1.403       .  A
C681        C686   1.401       .  A
C681        H688   1.084       .  S
C682        C683   1.414       .  A
C683        C684   1.404       .  A
C683        C690   1.507   1_554  S
C684        C685   1.402       .  A
C684        H689   1.084       .  S
C685        C686   1.412       .  A
C686        C687   1.504       .  S
C687        H691   1.111       .  S
C687        H692   1.111       .  S
C687        H693   1.100       .  S
C690        H694   1.110       .  S
C690        H695   1.109       .  S
C690        H696   1.111       .  S
C697        C698   1.404       .  A
C697        C702   1.404       .  A
C697        H704   1.084       .  S
C698        C699   1.416       .  A
C699        C700   1.405       .  A
C699        C706   1.507       .  S
C700        C701   1.405       .  A
C700        H705   1.084       .  S
C701        C702   1.418       .  A
C702        C703   1.509       .  S
C703        H707   1.111       .  S
C703        H708   1.109       .  S
C703        H709   1.110       .  S
C706        H710   1.110       .  S
C706        H711   1.109       .  S
C706        H712   1.109       .  S
C713        C714   1.408       .  A
C713        C718   1.403       .  A
C713        H720   1.083       .  S
C714        C715   1.425       .  A
C715        C716   1.402       .  A
C715        C722   1.508       .  S
C716        C717   1.397       .  A
C716        H721   1.084       .  S
C717        C718   1.408       .  A
C718        C719   1.503       .  S
C719        H723   1.111       .  S
C719        H724   1.104       .  S
C719        H725   1.110       .  S
C722        H726   1.110       .  S
C722        H727   1.109       .  S
C722        H728   1.111       .  S
C729        C730   1.400       .  A
C729        C734   1.405       .  A
C729        H736   1.085       .  S
C730        C731   1.410       .  A
C731        C732   1.402       .  A
C731        C738   1.509       .  S
C732        C733   1.412       .  A
C732        H737   1.083       .  S
C733        C734   1.424       .  A
C734        C735   1.508       .  S
C735        H739   1.111       .  S
C735        H740   1.110   1_565  S
C735        H741   1.108       .  S
C738        H742   1.109       .  S
C738        H743   1.111       .  S
C738        H744   1.111       .  S
C745        C746   1.405       .  A
C745        C750   1.400       .  A
C745        H752   1.084       .  S
C746        C747   1.420       .  A
C747        C748   1.407       .  A
C747        C754   1.508       .  S
C748        C749   1.405       .  A
C748        H753   1.083       .  S
C749        C750   1.415       .  A
C750        C751   1.504       .  S
C751        H755   1.111       .  S
C751        H756   1.109       .  S
C751        H757   1.110       .  S
C754        H758   1.110       .  S
C754        H759   1.110       .  S
C754        H760   1.111       .  S
C761        C762   1.409       .  A
C761        C766   1.406       .  A
C761        H768   1.084       .  S
C762        C763   1.419       .  A
C763        C764   1.400       .  A
C763        C770   1.510       .  S
C764        C765   1.404       .  A
C764        H769   1.082       .  S
C765        C766   1.416       .  A
C766        C767   1.508       .  S
C767        H771   1.111       .  S
C767        H772   1.109       .  S
C767        H773   1.110       .  S
C770        H774   1.110       .  S
C770        H775   1.110       .  S
C770        H776   1.111       .  S
C777        C778   1.406       .  A
C777        C782   1.407       .  A
C777        H784   1.084       .  S
C778        C779   1.418       .  A
C779        C780   1.403       .  A
C779        C786   1.504       .  S
C780        C781   1.401       .  A
C780        H785   1.084       .  S
C781        C782   1.418       .  A
C782        C783   1.508       .  S
C783        H787   1.110       .  S
C783        H788   1.109       .  S
C783        H789   1.110       .  S
C786        H790   1.110   1_545  S
C786        H791   1.108       .  S
C786        H792   1.111       .  S
C793        C794   1.405   1_545  A
C793        C798   1.404       .  A
C793        H800   1.084       .  S
C794        C795   1.420       .  A
C795        C796   1.403       .  A
C795        C802   1.509       .  S
C796        C797   1.400       .  A
C796        H801   1.083       .  S
C797        C798   1.412   1_565  A
C798        C799   1.507       .  S
C799        H803   1.111       .  S
C799        H804   1.110       .  S
C799        H805   1.109   1_545  S
C802        H806   1.110   1_565  S
C802        H807   1.109       .  S
C802        H808   1.111       .  S
C809        C810   1.401       .  A
C809        C814   1.402       .  A
C809        H816   1.085       .  S
C810        C811   1.410       .  A
C811        C812   1.403       .  A
C811        C818   1.505       .  S
C812        C813   1.405       .  A
C812        H817   1.084       .  S
C813        C814   1.418       .  A
C814        C815   1.508       .  S
C815        H819   1.111       .  S
C815        H820   1.111       .  S
C815        H821   1.109       .  S
C818        H822   1.103       .  S
C818        H823   1.110       .  S
C818        H824   1.111       .  S
