geometry optimzed in LAMMPS
_audit_creation_date              2020-11-30 
_audit_creation_method            'lammps2cif' 
_symmetry_space_group_name_H-M    'P1' 
_symmetry_Int_Tables_number       1 
_symmetry_cell_setting            triclinic 
loop_ 
_symmetry_equiv_pos_as_xyz 
  x,y,z 
_cell_length_a                    41.79464962364735 
_cell_length_b                    41.66660564868012 
_cell_length_c                    35.72927595180058 
_cell_angle_alpha                 89.96055077693012 
_cell_angle_beta                  90.10621439508834 
_cell_angle_gamma                 120.13095387558442 
loop_ 
_atom_site_label 
_atom_site_type_symbol 
_atom_site_fract_x 
_atom_site_fract_y 
_atom_site_fract_z 
_atom_site_charge 
O1          O  0.44943913  0.94423581  0.30371335    -0.80260
O2          O  0.50980957  0.94977671  0.21110745    -0.80290
O3          O  0.44111482  0.96319122  0.21900646    -0.80300
O4          O  0.57360133  0.98746695  0.29717760    -0.80240
O5          O  0.47119860  0.97194542  0.16528882    -0.80360
O6          O  0.51521060  0.94582793  0.30792943    -0.80280
O7          O  0.56936758  0.98777756  0.22172847    -0.80260
O8          O  0.43177396  0.98326813  0.28937033    -0.80300
C9          C  0.42497224  0.95335746  0.30486960     1.09430
C10         C  0.54334247  0.95736301  0.20858946     1.09310
C11         C  0.44105678  0.95642330  0.18360188     1.09450
C12         C  0.54909362  0.95561459  0.30908654     1.09330
O13         O  0.54973614  0.01711699  0.34356312    -0.80270
O14         O  0.49057502  0.03699893  0.19888495    -0.80340
O15         O  0.49598011  0.05427959  0.28513222    -0.80280
O16         O  0.57349106  0.05972528  0.22374649    -0.80260
O17         O  0.54660268  0.02128633  0.17849733    -0.80310
O18         O  0.48423701  0.01939033  0.33540293    -0.80280
O19         O  0.57374445  0.05794848  0.29914582    -0.80230
O20         O  0.44175808  0.02656131  0.23241199    -0.80300
Co21       Co  0.50006042  0.98232476  0.31888612     1.51530
Co22       Co  0.49949510  0.99171986  0.20940494     1.51690
Co23       Co  0.47261862  0.01033059  0.25203765     1.51570
Co24       Co  0.56961111  0.02295537  0.26068694     1.51470
O25         O  0.51394101  0.00087430  0.26446599    -1.42200
C26         C  0.57542462  0.04833261  0.33201971     1.09350
C27         C  0.46299649  0.04251720  0.20522955     1.09440
C28         C  0.48765305  0.04852734  0.31958054     1.09380
C29         C  0.57459877  0.05073456  0.19041843     1.09350
O30         O  0.98688476  0.52474653  0.34233160    -0.80260
O31         O  0.97514972  0.44905788  0.20013877    -0.79990
O32         O  0.94943428  0.50415542  0.22136904    -0.80300
O33         O  0.95582402  0.43482446  0.28461958    -0.80240
O34         O  0.99077519  0.52023532  0.17875168    -0.80360
O35         O  0.98908202  0.45923199  0.33563319    -0.80280
O36         O  0.98637815  0.41028603  0.23252549    -0.80260
O37         O  0.94649305  0.50671343  0.29693651    -0.80300
C38         C  0.95563875  0.51819923  0.32987440     1.09430
C39         C  0.97006345  0.41592348  0.20578730     1.09310
C40         C  0.95978602  0.51589070  0.18870441     1.09450
C41         C  0.96113368  0.43253735  0.31924537     1.09330
O42         O  0.06531133  0.50236054  0.30777219    -0.80270
O43         O  0.06004780  0.55628656  0.21489652    -0.80340
O44         O  0.01488005  0.57808159  0.29685630    -0.80280
O45         O  0.04862324  0.47429234  0.22177118    -0.80260
O46         O  0.04101289  0.49613889  0.16788950    -0.80310
O47         O  0.05925427  0.56574473  0.31088740    -0.80280
O48         O  0.02780113  0.44527297  0.29148766    -0.80230
O49         O  0.01951397  0.57503634  0.22267073    -0.80300
Co50       Co  0.02467798  0.51272743  0.32038167     1.51530
Co51       Co  0.01955973  0.50344377  0.21141224     1.51690
Co52       Co  0.98289849  0.53827894  0.25963771     1.51570
Co53       Co  0.00050002  0.45717149  0.25299408     1.51470
O54         O  0.00770407  0.50735146  0.26552475    -1.42200
C55         C  0.05787435  0.46897592  0.30631599     1.09350
C56         C  0.05139400  0.58158486  0.21229082     1.09440
C57         C  0.04682716  0.58787898  0.30994764     1.09380
C58         C  0.05566337  0.48083681  0.18647648     1.09350
O59         O  0.49349155  0.44313573  0.30584660    -0.80260
O60         O  0.55235671  0.52595292  0.16810326    -0.80290
O61         O  0.49219312  0.43229795  0.21963248    -0.80300
O62         O  0.57452582  0.50561423  0.28793957    -0.80240
O63         O  0.48331267  0.46044086  0.17184903    -0.80360
O64         O  0.54591405  0.51460402  0.33264239    -0.80280
O65         O  0.57881629  0.51101862  0.21253388    -0.80260
O66         O  0.44178066  0.40637750  0.27535141    -0.80300
C67         C  0.46426475  0.41070197  0.30106239     1.09430
C68         C  0.57895173  0.52196944  0.17977699     1.09310
C69         C  0.48220637  0.43176868  0.18594577     1.09450
C70         C  0.57482477  0.51524568  0.32130335     1.09330
O71         O  0.50895350  0.54811548  0.30243651    -0.80270
O72         O  0.45235522  0.50218748  0.20518941    -0.80340
O73         O  0.44332658  0.47023467  0.28956054    -0.80280
O74         O  0.57792199  0.57968230  0.21575054    -0.80260
O75         O  0.52070098  0.56560521  0.20297781    -0.80310
O76         O  0.47070812  0.48280068  0.34472245    -0.80280
O77         O  0.56889081  0.57277688  0.29060482    -0.80230
O78         O  0.43220776  0.44469841  0.22062626    -0.80300
Co79       Co  0.50019660  0.49647412  0.30025818     1.51530
Co80       Co  0.50278379  0.51310127  0.19101156     1.51690
Co81       Co  0.47300766  0.45420484  0.25580618     1.51570
Co82       Co  0.57168735  0.53939321  0.25144148     1.51470
O83         O  0.51568002  0.50555997  0.24512319    -1.42200
C84         C  0.54221415  0.57507069  0.30500118     1.09350
C85         C  0.42658189  0.46876290  0.20573341     1.09440
C86         C  0.44135497  0.47038321  0.32544706     1.09380
C87         C  0.55501339  0.58853158  0.20311187     1.09350
C88         C  0.86673640  0.57624413  0.39281580     0.42330
N89         N  0.81887592  0.56727860  0.42368117     0.01220
C90         C  0.79034388  0.67747158  0.04732670    -0.06660
H91         H  0.91580352  0.67532907  0.06791211     0.06710
C92         C  0.84129214  0.54010386  0.09412213    -0.07010
Co93       Co  0.82202366  0.63331692  0.45945476     0.74180
N94         N  0.87230436  0.65549416  0.02663458    -0.26190
Co95       Co  0.82405970  0.62599506  0.05771891     0.74070
C96         C  0.87526428  0.57007438  0.10884559     0.42430
N97         N  0.79495577  0.50599513  0.01522874     0.00840
N98         N  0.84482105  0.59280415  0.08171850     0.00940
N99         N  0.78931886  0.68153106  0.48426623    -0.47030
H100        H  0.89609918  0.63961069  0.40556191     0.06700
N101        N  0.87227533  0.65897854  0.48976213     0.01230
N102        N  0.77321382  0.59408472  0.08640545     0.00970
C103        C  0.72136160  0.57237633  0.11551095     0.42570
N104        N  0.79341920  0.50856462  0.47869459    -0.25640
C105        C  0.74782142  0.61662159  0.41355854    -0.06560
N106        N  0.83289963  0.55071106  0.40407746    -0.46750
N107        N  0.75192427  0.60440511  0.10448933    -0.46970
C108        C  0.71413138  0.58189418  0.40200740     0.42340
N109        N  0.80305204  0.66037850  0.49486406     0.01210
N110        N  0.72457151  0.51009329  0.48520565    -0.25660
N111        N  0.84068795  0.60342418  0.42631610    -0.26160
N112        N  0.72581996  0.50710794  0.02168896     0.00850
H113        H  0.67955826  0.48899524  0.44561364     0.06740
H114        H  0.70641818  0.51245113  0.10456495     0.06780
N115        N  0.80381538  0.65743779  0.03171898    -0.26210
N116        N  0.82476263  0.55655273  0.07766951    -0.25820
N117        N  0.75134115  0.56890582  0.43036632     0.01220
C118        C  0.92947564  0.68919240  0.00574871     0.42620
C119        C  0.80903497  0.49081027  0.46292618    -0.07070
N120        N  0.75721555  0.55774506  0.08410770    -0.25820
H121        H  0.83053559  0.51052525  0.09585199     0.06760
N122        N  0.90624085  0.67917260  0.47605665    -0.47040
H123        H  0.81148088  0.48762266  0.43327161     0.06750
C124        C  0.66827145  0.47857213  0.00839406     0.42450
C125        C  0.87225654  0.61209694  0.40757305    -0.06570
Co126      Co  0.77170899  0.53829924  0.45405995     0.73820
N127        N  0.81081596  0.48691861  0.02578124    -0.46760
C128        C  0.78033672  0.69313899  0.01579760     0.42720
N129        N  0.71908908  0.55410483  0.41319951    -0.46750
Co130      Co  0.77551310  0.53128820  0.05007526     0.73890
C131        C  0.72569654  0.54193756  0.10290717    -0.07070
C132        C  0.90718611  0.67342023  0.03906765    -0.06640
N133        N  0.76941175  0.60548807  0.43127795    -0.26160
N134        N  0.87595399  0.60243288  0.10074019    -0.46930
H135        H  0.78845878  0.68089406  0.07704395     0.06720
C136        C  0.68932804  0.49255861  0.47416482    -0.07050
Cl137      Cl  0.79863164  0.58283449  0.00533488    -0.50050
C138        C  0.82117224  0.47715054  0.99421552     0.42480
H139        H  0.75446028  0.64505758  0.40969884     0.06690
N140        N  0.69264636  0.48757685  0.03661549    -0.46760
C141        C  0.72091678  0.13714763  0.39624877     0.42330
N142        N  0.75993966  0.18665875  0.42436864     0.01220
C143        C  0.90394735  0.22168718  0.04366418    -0.06660
H144        H  0.77695883  0.09420659  0.06786594     0.06710
C145        C  0.71543880  0.17076592  0.09201481    -0.07010
Co146      Co  0.82496449  0.18645495  0.45827771     0.74180
N147        N  0.79900850  0.13797613  0.02656182    -0.26190
Co148      Co  0.81842797  0.18750419  0.05641968     0.74070
C149        C  0.71096420  0.13629389  0.10613317     0.42430
N150        N  0.72745993  0.21746406  0.01423765     0.00840
N151        N  0.76499920  0.16786612  0.08082216     0.00940
N152        N  0.90659016  0.22090927  0.48049120    -0.47030
H153        H  0.75556694  0.10903922  0.40861431     0.06700
N154        N  0.80125940  0.13767980  0.48963957     0.01230
N155        N  0.83795663  0.23900010  0.08442057     0.00970
C156        C  0.86736510  0.28936613  0.11675139     0.42570
N157        N  0.72998383  0.21674456  0.47765846    -0.25640
C158        C  0.88063497  0.25830108  0.40832474    -0.06560
N159        N  0.72825576  0.17098816  0.40641718    -0.46750
N160        N  0.86737749  0.25786262  0.10648311    -0.46970
C161        C  0.87807374  0.29033070  0.39393920     0.42340
N162        N  0.87211523  0.20702036  0.49231351     0.01210
N163        N  0.80151930  0.28470042  0.48003883    -0.25660
N164        N  0.77512610  0.16567534  0.42702921    -0.26160
N165        N  0.79809807  0.28634253  0.01643267     0.00850
H166        H  0.82502292  0.32589359  0.43692043     0.06740
H167        H  0.82616064  0.30805759  0.09954318     0.06780
N168        N  0.86972460  0.20729323  0.02927768    -0.26210
N169        N  0.74910021  0.18816624  0.07664442    -0.25820
N170        N  0.82951825  0.25448357  0.42529620     0.01220
C171        C  0.77491113  0.08047130  0.00517665     0.42620
C172        C  0.69625203  0.20296923  0.46290071    -0.07070
N173        N  0.81952157  0.25669870  0.07990254    -0.25820
H174        H  0.69604444  0.18073385  0.09265448     0.06760
N175        N  0.78674396  0.10375543  0.47572775    -0.47040
H176        H  0.68956897  0.19993277  0.43341743     0.06750
C177        C  0.82434062  0.34258960  0.99762514     0.42450
C178        C  0.75186986  0.13289037  0.41016304    -0.06570
Co179      Co  0.78015393  0.23580172  0.45150522     0.73820
N180        N  0.69336966  0.20518903  0.02590471    -0.46760
C181        C  0.92839248  0.23048618  0.01120048     0.42720
N182        N  0.84571093  0.28546476  0.40581404    -0.46750
Co183      Co  0.77336020  0.23753743  0.04741598     0.73890
C184        C  0.83564141  0.28824861  0.09900697    -0.07070
C185        C  0.78288329  0.10288673  0.03897453    -0.06640
N186        N  0.84865276  0.23730747  0.42744155    -0.26160
N187        N  0.74293139  0.13619356  0.09886403    -0.46930
H188        H  0.91071051  0.22595547  0.07309124     0.06720
C189        C  0.81905900  0.31878039  0.46609619    -0.07050
Cl190      Cl  0.79946496  0.21177139  0.00347853    -0.50050
C191        C  0.67219041  0.19510524  0.99504565     0.42480
H192        H  0.90276210  0.25220638  0.40508082     0.06690
N193        N  0.81081212  0.32077383  0.02826638    -0.46760
C194        C  0.29251527  0.86493077  0.39244180     0.42330
N195        N  0.25692292  0.81675732  0.42477942     0.01220
C196        C  0.11244475  0.77627569  0.04414778    -0.06660
H197        H  0.24366572  0.90260006  0.07535534     0.06710
C198        C  0.29631992  0.81872227  0.09515262    -0.07010
Co199      Co  0.19292959  0.81776043  0.46062467     0.74180
N200        N  0.21978906  0.86143783  0.03161633    -0.26190
Co201      Co  0.19743160  0.80998948  0.05866857     0.74070
C202        C  0.30232367  0.85315848  0.11152686     0.42430
N203        N  0.28522905  0.77805505  0.01265474     0.00840
N204        N  0.24949524  0.82596885  0.08335669     0.00940
N205        N  0.11147279  0.78329860  0.48138708    -0.47030
H206        H  0.25715228  0.89198251  0.40574597     0.06700
N207        N  0.21790412  0.86408581  0.49489149     0.01230
N208        N  0.17578525  0.75711746  0.08497675     0.00970
C209        C  0.14939841  0.70893738  0.12104090     0.42570
N210        N  0.28346268  0.78094387  0.47618067    -0.25640
C211        C  0.13768652  0.75427246  0.40561924    -0.06560
N212        N  0.28710192  0.83193403  0.40406900    -0.46750
N213        N  0.14928408  0.74044111  0.11070728    -0.46970
C214        C  0.13844826  0.72332209  0.38703190     0.42340
N215        N  0.14566509  0.79677625  0.49402630     0.01210
N216        N  0.21034972  0.71390080  0.47557611    -0.25660
N217        N  0.24168448  0.83769778  0.42821895    -0.26160
N218        N  0.21226716  0.71110516  0.01206740     0.00850
H219        H  0.18568879  0.67352948  0.43172741     0.06740
H220        H  0.18713521  0.68766305  0.09950675     0.06780
N221        N  0.14710255  0.79310680  0.03074908    -0.26210
N222        N  0.26378328  0.80445918  0.07793021    -0.25820
N223        N  0.18528132  0.75068957  0.42294340     0.01220
C224        C  0.24739051  0.92040633  0.01362346     0.42620
C225        C  0.31744065  0.79544667  0.46196024    -0.07070
N226        N  0.19256502  0.73812368  0.07832204    -0.25820
H227        H  0.31381066  0.80649944  0.09539419     0.06760
N228        N  0.23376047  0.89877858  0.48308570    -0.47040
H229        H  0.32469680  0.80048147  0.43267731     0.06750
C230        C  0.18149316  0.65468656  0.99329425     0.42450
C231        C  0.26234313  0.86913352  0.40839597    -0.06570
Co232      Co  0.23420970  0.76519378  0.44943831     0.73820
N233        N  0.31916678  0.78954586  0.02467355    -0.46760
C234        C  0.08902866  0.76993497  0.01133346     0.42720
N235        N  0.16833225  0.72264142  0.39954247    -0.46750
Co236      Co  0.23862587  0.75752469  0.04543958     0.73890
C237        C  0.17769263  0.70747305  0.09900227    -0.07070
C238        C  0.23800165  0.89583431  0.04600479    -0.06640
N239        N  0.16843608  0.77002928  0.42698175    -0.26160
N240        N  0.27201678  0.85601387  0.10328732    -0.46930
H241        H  0.10461126  0.76876112  0.07303166     0.06720
C242        C  0.19126325  0.67977172  0.46115396    -0.07050
Cl243      Cl  0.21563208  0.78765931  0.00358752    -0.50050
C244        C  0.34096262  0.80148407  0.99426801     0.42480
H245        H  0.11811166  0.76387916  0.40262864     0.06690
N246        N  0.19592035  0.67639482  0.02371944    -0.46760
C247        C  0.47702517  0.80259630  0.00438367     0.42330
N248        N  0.51114416  0.77966267  0.49184633     0.01220
C249        C  0.62787032  0.75526292  0.10862162    -0.06660
H250        H  0.64665726  0.89299536  0.10632393     0.06710
C251        C  0.67737770  0.89566097  0.46530750    -0.07010
Co252      Co  0.54455201  0.76712926  0.05929680     0.74180
N253        N  0.60873628  0.83976272  0.08166473    -0.26190
Co254      Co  0.63934526  0.81910752  0.05262624     0.74070
C255        C  0.69107151  0.92088855  0.99728289     0.42430
N256        N  0.59879549  0.82508220  0.42510604     0.00840
N257        N  0.66286940  0.86500254  0.01735715     0.00940
N258        N  0.56538372  0.72369096  0.11175900    -0.47030
H259        H  0.48698296  0.80221419  0.06778636     0.06700
N260        N  0.57240914  0.81896146  0.08347723     0.01230
N261        N  0.66769095  0.79761140  0.02251461     0.00970
C262        C  0.70275945  0.77562639  0.00769092     0.42570
N263        N  0.56260733  0.80493297  0.42897803    -0.25640
C264        C  0.50208743  0.68142252  0.04924743    -0.06560
N265        N  0.48961501  0.79054209  0.47639941    -0.46750
N266        N  0.68975318  0.78641556  0.03682114    -0.46970
C267        C  0.49023470  0.65593426  0.01730105     0.42340
N268        N  0.57759929  0.75251942  0.08915221     0.01210
N269        N  0.56590784  0.73762419  0.43397866    -0.25660
N270        N  0.51283728  0.78289593  0.02850194    -0.26160
N271        N  0.60203628  0.75547143  0.42935407     0.00850
H272        H  0.52099316  0.68636670  0.41356342     0.06740
H273        H  0.68882967  0.77412213  0.44502488     0.06780
N274        N  0.61398386  0.77166666  0.08666777    -0.26210
N275        N  0.66032211  0.86156357  0.48047393    -0.25820
N276        N  0.51572603  0.71215545  0.49743238     0.01220
C277        C  0.58344081  0.86689394  0.11608091     0.42620
C278        C  0.54662386  0.82020222  0.40903147    -0.07070
N279        N  0.66491008  0.79406398  0.48564003    -0.25820
H280        H  0.68002953  0.90191748  0.43573122     0.06760
N281        N  0.55659370  0.83376306  0.10357770    -0.47040
H282        H  0.51721670  0.80982717  0.40694704     0.06750
C283        C  0.58075521  0.70422646  0.39823901     0.42450
C284        C  0.49184874  0.79715192  0.03926738    -0.06570
Co285      Co  0.53829591  0.75830701  0.46284439     0.73820
N286        N  0.60888370  0.85470567  0.40356077    -0.46760
C287        C  0.59533011  0.72383458  0.12559345     0.42720
N288        N  0.49931541  0.67726522  0.48632179    -0.46750
Co289      Co  0.63256102  0.80940161  0.45431115     0.73890
C290        C  0.68601325  0.78032966  0.47378088    -0.07070
C291        C  0.61854464  0.87101458  0.10156194    -0.06640
N292        N  0.51784000  0.71538943  0.03407942    -0.26160
N293        N  0.68136609  0.89998275  0.02849437    -0.46930
H294        H  0.65685605  0.76423165  0.11231358     0.06720
C295        C  0.55039906  0.70570369  0.41553536    -0.07050
Cl296      Cl  0.58891010  0.78855642  0.00726316    -0.50050
C297        C  0.57716435  0.85332090  0.39254349     0.42480
H298        H  0.50012232  0.67600419  0.07886482     0.06690
N299        N  0.61247083  0.73628331  0.40748945    -0.46760
C300        C  0.15575506  0.42929430  0.38374894     0.42330
N301        N  0.20010321  0.44006331  0.42149230     0.01220
C302        C  0.22771559  0.32617150  0.04254581    -0.06660
H303        H  0.10548426  0.33074935  0.06839472     0.06710
C304        C  0.18883156  0.47118054  0.09322382    -0.07010
Co305      Co  0.19573677  0.37285135  0.45698410     0.74180
N306        N  0.14746125  0.35232122  0.02560849    -0.26190
Co307      Co  0.19719953  0.38081696  0.05517743     0.74070
C308        C  0.15433031  0.44283236  0.10934704     0.42430
N309        N  0.23194753  0.50402861  0.01210755     0.00840
N310        N  0.18050611  0.41678993  0.07980672     0.00940
N311        N  0.22718045  0.32320212  0.47933750    -0.47030
H312        H  0.12703160  0.36615327  0.39571857     0.06700
N313        N  0.14622901  0.34929607  0.48866842     0.01230
N314        N  0.24871040  0.41091688  0.08325862     0.00970
C315        C  0.29804859  0.42945047  0.11604734     0.42570
N316        N  0.23199758  0.50053912  0.47562131    -0.25640
C317        C  0.26630284  0.38605595  0.40733682    -0.06560
N318        N  0.18765719  0.45603722  0.39837933    -0.46750
N319        N  0.26609965  0.39873956  0.10541275    -0.46970
C320        C  0.29915009  0.42012455  0.39297456     0.42340
N321        N  0.21407531  0.34445780  0.49128957     0.01210
N322        N  0.29885153  0.49517749  0.47962951    -0.25660
N323        N  0.17857893  0.40372634  0.42354500    -0.26160
N324        N  0.29917523  0.49802410  0.01622321     0.00850
H325        H  0.34149810  0.51284113  0.43855294     0.06740
H326        H  0.31978958  0.49026733  0.10098319     0.06780
N327        N  0.21446222  0.34710237  0.02824722    -0.26210
N328        N  0.20241262  0.45279026  0.07544721    -0.25820
N329        N  0.26562090  0.43487101  0.42562423     0.01220
C330        C  0.08923146  0.31816870  0.00630719     0.42620
C331        C  0.21729628  0.51897061  0.45958180    -0.07070
N332        N  0.26782029  0.44727593  0.07910896    -0.25820
H333        H  0.20237624  0.50106238  0.09440792     0.06760
N334        N  0.11178767  0.32902520  0.47599369    -0.47040
H335        H  0.21373979  0.51974944  0.42992991     0.06750
C336        C  0.35660646  0.52359050  0.00150613     0.42450
C337        C  0.14926775  0.39413908  0.40075492    -0.06570
Co338      Co  0.24934184  0.46801946  0.45033958     0.73820
N339        N  0.21708354  0.52420177  0.02242425    -0.46760
C340        C  0.23596329  0.31023789  0.00997201     0.42720
N341        N  0.29601830  0.44847443  0.40584768    -0.46750
Co342      Co  0.25059334  0.47609902  0.04612915     0.73890
C343        C  0.29888168  0.46125506  0.09899985    -0.07070
C344        C  0.11293942  0.33351784  0.03913050    -0.06640
N345        N  0.24683885  0.39836175  0.42712760    -0.26160
N346        N  0.15076547  0.40936557  0.10008569    -0.46930
H347        H  0.23197384  0.32331072  0.07192330     0.06720
C348        C  0.33381871  0.51098818  0.46752326    -0.07050
Cl349      Cl  0.22299394  0.42417104  0.00217819    -0.50050
C350        C  0.20679698  0.53433661  0.99059397     0.42480
H351        H  0.25810111  0.35727274  0.40287808     0.06690
N352        N  0.33292481  0.51494129  0.03036380    -0.46760
C353        C  0.53519403  0.19168026  0.00808302     0.42330
N354        N  0.50255800  0.21601211  0.49374420     0.01220
C355        C  0.39275717  0.25797293  0.09930427    -0.06660
H356        H  0.36439519  0.10981656  0.10391585     0.06710
C357        C  0.33516745  0.10264807  0.47073336    -0.07010
Co358      Co  0.47115595  0.23369694  0.05893272     0.74180
N359        N  0.40453158  0.16439366  0.08325915    -0.26190
Co360      Co  0.37589191  0.18535659  0.05269315     0.74070
C361        C  0.32082800  0.07977240  0.00419736     0.42430
N362        N  0.41658155  0.16901006  0.42776244     0.00840
N363        N  0.35063589  0.13678494  0.02061730     0.00940
N364        N  0.45498462  0.28568147  0.10192794    -0.47030
H365        H  0.52664458  0.19586660  0.07126400     0.06700
N366        N  0.44097397  0.18328511  0.08479321     0.01230
N367        N  0.34875753  0.20594705  0.01986800     0.00970
C368        C  0.31703821  0.23083950  0.00203494     0.42570
N369        N  0.45263029  0.19081993  0.43089494    -0.25640
C370        C  0.52028143  0.31820232  0.04531126    -0.06560
N371        N  0.52260919  0.20296276  0.47936902    -0.46750
N372        N  0.32851005  0.22001673  0.03236072    -0.46970
C373        C  0.53362981  0.34175183  0.01232906     0.42340
N374        N  0.44033512  0.25297499  0.08548089     0.01210
N375        N  0.44951021  0.25837730  0.43333274    -0.25660
N376        N  0.50117813  0.21438819  0.03048064    -0.26160
N377        N  0.41338963  0.23954480  0.42859014     0.00850
H378        H  0.49240700  0.31297056  0.41710023     0.06740
H379        H  0.32874200  0.22600798  0.43985919     0.06780
N380        N  0.40394461  0.23594235  0.08294899    -0.26210
N381        N  0.35336866  0.13752439  0.48367310    -0.25820
N382        N  0.50145893  0.28531878  0.49502351     0.01220
C383        C  0.42682436  0.13283192  0.11292992     0.42620
C384        C  0.47010955  0.17695048  0.41154590    -0.07070
N385        N  0.35112929  0.20650762  0.48290876    -0.25820
H386        H  0.33293425  0.09446260  0.44171086     0.06760
N387        N  0.45534516  0.16559548  0.10234916    -0.47040
H388        H  0.49978007  0.18914121  0.40945286     0.06750
C389        C  0.43181287  0.29259581  0.40352364     0.42450
C390        C  0.52145634  0.19961844  0.04240273    -0.06570
Co391      Co  0.47694088  0.23799156  0.46289937     0.73820
N392        N  0.40823815  0.13892759  0.40717362    -0.46760
C393        C  0.42711442  0.29116536  0.11160745     0.42720
N394        N  0.52187488  0.31939472  0.48225616    -0.46750
Co395      Co  0.38255660  0.18733101  0.45456671     0.73890
C396        C  0.33181289  0.22169564  0.46916718    -0.07070
C397        C  0.39280588  0.13184957  0.10105897    -0.06640
N398        N  0.50023606  0.28378841  0.03173616    -0.26160
N399        N  0.33172764  0.10263653  0.03401811    -0.46930
H400        H  0.36462402  0.25255865  0.10047644     0.06720
C401        C  0.46353421  0.29174756  0.41787916    -0.07050
Cl402      Cl  0.42615748  0.21079806  0.00725525    -0.50050
C403        C  0.44123110  0.14251160  0.39609304     0.42480
H404        H  0.52558615  0.32574386  0.07453780     0.06690
N405        N  0.40137315  0.25906115  0.40992833    -0.46760
C406        C  0.29633499  0.25123082  0.00366402    -0.00280
C407        C  0.26797192  0.24064851  0.03020674    -0.12160
C408        C  0.24780072  0.25927426  0.03279527     0.01950
C409        C  0.25615704  0.28936916  0.00873986    -0.00370
C410        C  0.28466017  0.30007791  0.48248546    -0.12100
C411        C  0.30489984  0.28163395  0.47994969     0.01840
H412        H  0.26114859  0.21736453  0.04859620     0.14820
H413        H  0.29183432  0.32373225  0.46459046     0.14820
C414        C  0.33586370  0.29610926  0.45452884     0.36470
C415        C  0.21761074  0.24587407  0.05908953     0.36380
N416        N  0.36084570  0.30793347  0.43433751    -0.43870
N417        N  0.19326161  0.23493147  0.08002181    -0.43870
C418        C  0.46419960  0.61543923  0.01591727    -0.00280
C419        C  0.45415032  0.59889543  0.48036871    -0.12160
C420        C  0.42096937  0.56572260  0.47504726     0.01950
C421        C  0.39690373  0.54928559  0.00567992    -0.00370
C422        C  0.41076625  0.56163682  0.04195166    -0.12100
C423        C  0.44460743  0.59419962  0.04737774     0.01840
H424        H  0.47082751  0.61322513  0.45612115     0.14820
H425        H  0.39413778  0.54723763  0.06619740     0.14820
C426        C  0.45759955  0.60487268  0.08525968     0.36470
C427        C  0.41237393  0.55053549  0.43779219     0.36380
N428        N  0.46776429  0.61252414  0.11585976    -0.43870
N429        N  0.40611682  0.53866875  0.40771509    -0.43870
C430        C  0.30144970  0.03907178  0.00665639    -0.00280
C431        C  0.31310407  0.02260729  0.03359861    -0.12160
C432        C  0.29618691  0.98396930  0.03634319     0.01950
C433        C  0.26635677  0.96126420  0.01244093    -0.00370
C434        C  0.25473502  0.97786355  0.48556418    -0.12100
C435        C  0.27196834  0.01643579  0.48249128     0.01840
H436        H  0.33625865  0.04000314  0.05176915     0.14820
H437        H  0.23180343  0.96061799  0.46710478     0.14820
C438        C  0.25782483  0.03200154  0.45545020     0.36470
C439        C  0.31178310  0.96862513  0.06189645     0.36380
N440        N  0.24635675  0.04442936  0.43387518    -0.43870
N441        N  0.32474737  0.95653977  0.08207205    -0.43870
C442        C  0.18998870  0.55826704  0.98934468    -0.00280
C443        C  0.18060744  0.56814422  0.02349107    -0.12160
C444        C  0.17227996  0.59666258  0.02503779     0.01950
C445        C  0.17419692  0.61623779  0.99212298    -0.00370
C446        C  0.17689730  0.60203390  0.45767008    -0.12100
C447        C  0.18514557  0.57364942  0.45581747     0.01840
H448        H  0.18152494  0.55492277  0.04930844     0.14820
H449        H  0.17583372  0.61512188  0.43188583     0.14820
C450        C  0.19078581  0.56389710  0.41878571     0.36470
C451        C  0.16293120  0.60597917  0.06068948     0.36380
N452        N  0.19508350  0.55759847  0.38828614    -0.43870
N453        N  0.15503159  0.61343993  0.08905191    -0.43870
C454        C  0.37719646  0.80472059  0.99366253    -0.00280
C455        C  0.40511366  0.83083647  0.01707904    -0.12160
C456        C  0.43887530  0.83172031  0.02013523     0.01950
C457        C  0.44408994  0.80569710  0.00011526    -0.00370
C458        C  0.41655815  0.78047517  0.47594379    -0.12100
C459        C  0.38310327  0.77955736  0.47272640     0.01840
H460        H  0.40038933  0.85020027  0.03306697     0.14820
H461        H  0.42051664  0.76021930  0.46069831     0.14820
C462        C  0.35447111  0.75054872  0.45013363     0.36470
C463        C  0.46819627  0.86005719  0.04257586     0.36380
N464        N  0.33154271  0.72717363  0.43219130    -0.43870
N465        N  0.49231536  0.88284609  0.05991162    -0.43870
C466        C  0.75462294  0.03972456  0.00221668    -0.00280
C467        C  0.72448046  0.02247381  0.47751643    -0.12160
C468        C  0.70341303  0.98369752  0.47513675     0.01950
C469        C  0.71293330  0.96175011  0.99741844    -0.00370
C470        C  0.74343226  0.97910466  0.02164611    -0.12100
C471        C  0.76445933  0.01779494  0.02397446     0.01840
H472        H  0.71672233  0.03931810  0.46090133     0.14820
H473        H  0.75109424  0.96234875  0.03852342     0.14820
C474        C  0.79701713  0.03434711  0.04744744     0.36470
C475        C  0.67086806  0.96722789  0.45161502     0.36380
N476        N  0.82334177  0.04763933  0.06592762    -0.43870
N477        N  0.64462682  0.95408937  0.43300166    -0.43870
C478        C  0.96958026  0.25086451  0.00998119    -0.00280
C479        C  0.98722550  0.27305473  0.47863748    -0.12160
C480        C  0.02588502  0.29427036  0.47642105     0.01950
C481        C  0.04809738  0.29412959  0.00614215    -0.00370
C482        C  0.03046763  0.27100921  0.03707478    -0.12100
C483        C  0.99170932  0.24905230  0.03893466     0.01840
H484        H  0.97072103  0.27446132  0.45591906     0.14820
H485        H  0.04702104  0.26953261  0.05967232     0.14820
C486        C  0.97568501  0.22340446  0.06971013     0.36470
C487        C  0.04167882  0.31680726  0.44371030     0.36380
N488        N  0.96299116  0.20253621  0.09418187    -0.43870
N489        N  0.05379257  0.33451251  0.41707243    -0.43870
C490        C  0.63562891  0.19098428  0.99513242    -0.00280
C491        C  0.60991665  0.16715995  0.02160739    -0.12160
C492        C  0.57630336  0.16618143  0.02627939     0.01950
C493        C  0.56856328  0.18927195  0.00397978    -0.00370
C494        C  0.59411003  0.21243043  0.47703081    -0.12100
C495        C  0.62769588  0.21393235  0.47277311     0.01840
H496        H  0.61651753  0.14998931  0.03915362     0.14820
H497        H  0.58868704  0.23095613  0.46033135     0.14820
C498        C  0.65453059  0.24185063  0.44793374     0.36470
C499        C  0.55052596  0.14142466  0.05382447     0.36380
N500        N  0.67599893  0.26448962  0.42828002    -0.43870
N501        N  0.53020124  0.12148685  0.07609615    -0.43870
C502        C  0.97027776  0.70927964  0.00440630    -0.00280
C503        C  0.98894645  0.69421228  0.02373551    -0.12160
C504        C  0.02759921  0.71326146  0.02585985     0.01950
C505        C  0.04824995  0.74843690  0.00894372    -0.00370
C506        C  0.02965919  0.76317046  0.48882364    -0.12100
C507        C  0.99087962  0.74400931  0.48666784     0.01840
H508        H  0.97322537  0.66731673  0.03710890     0.14820
H509        H  0.04543031  0.79017219  0.47567571     0.14820
C510        C  0.97283622  0.76159484  0.46839538     0.36470
C511        C  0.04538729  0.69531586  0.04397832     0.36380
N512        N  0.95836770  0.77585500  0.45408135    -0.43870
N513        N  0.05964921  0.68078918  0.05817238    -0.43870
C514        C  0.76234302  0.71619547  0.01613872    -0.00280
C515        C  0.76904032  0.74045060  0.48600546    -0.12160
C516        C  0.75117262  0.76123389  0.48340118     0.01950
C517        C  0.72544823  0.75753797  0.01108148    -0.00370
C518        C  0.71983026  0.73451648  0.04196281    -0.12100
C519        C  0.73773300  0.71376164  0.04466143     0.01840
H520        H  0.78840277  0.74324657  0.46431890     0.14820
H521        H  0.70014477  0.73149695  0.06338112     0.14820
C522        C  0.72814062  0.68854857  0.07580376     0.36470
C523        C  0.76082009  0.78706429  0.45274358     0.36380
N524        N  0.72003217  0.66839222  0.10090361    -0.43870
N525        N  0.76880517  0.80791015  0.42826636    -0.43870
C526        C  0.82866445  0.44659407  0.99264077    -0.00280
C527        C  0.81214325  0.42117948  0.46351834    -0.12160
C528        C  0.81046318  0.38724800  0.46446864     0.01950
C529        C  0.82751241  0.37900945  0.99433978    -0.00370
C530        C  0.84614521  0.40537682  0.02243768    -0.12100
C531        C  0.84677745  0.43920815  0.02187867     0.01840
H532        H  0.79755068  0.42626579  0.44130759     0.14820
H533        H  0.85942199  0.39917288  0.04517896     0.14820
C534        C  0.86585380  0.46555992  0.05155443     0.36470
C535        C  0.78751916  0.36063236  0.43631882     0.36380
N536        N  0.88136336  0.48654704  0.07536997    -0.43870
N537        N  0.76895603  0.33962659  0.41366705    -0.43870
C538        C  0.56772848  0.37704671  0.01135275    -0.00280
C539        C  0.56700808  0.41002946  0.01646505    -0.12160
C540        C  0.59981246  0.44410446  0.01503170     0.01950
C541        C  0.63321481  0.44455603  0.00929938    -0.00370
C542        C  0.63384232  0.41170208  0.50383365    -0.12100
C543        C  0.60125733  0.37789192  0.50443473     0.01840
H544        H  0.54108990  0.40934873  0.02089338     0.14820
H545        H  0.65989847  0.41259097  0.49890066     0.14820
C546        C  0.60286931  0.34451012  0.49768994     0.36470
C547        C  0.59871451  0.47807267  0.01858422     0.36380
N548        N  0.60402020  0.31776412  0.49201797    -0.43870
N549        N  0.59791351  0.50534157  0.02129978    -0.43870
C550        C  0.43426010  0.32761218  0.12594461    -0.00280
C551        C  0.41768152  0.32999941  0.15882622    -0.12160
C552        C  0.43086591  0.36439738  0.17685258     0.01950
C553        C  0.46394113  0.39616024  0.16447373    -0.00370
C554        C  0.47689644  0.39452245  0.12884404    -0.12100
C555        C  0.46151758  0.36080608  0.10921017     0.01840
H556        H  0.39433957  0.30516231  0.17024887     0.14820
H557        H  0.49816000  0.41964690  0.11598445     0.14820
C558        C  0.47033378  0.36107316  0.07031530     0.36470
C559        C  0.40663150  0.36675265  0.20389513     0.36380
N560        N  0.47507091  0.36047775  0.03855310    -0.43870
N561        N  0.38509286  0.36655442  0.22435286    -0.43870
C562        C  0.45580530  0.37963392  0.32668640    -0.00280
C563        C  0.46665806  0.38815244  0.36417500    -0.12160
C564        C  0.45684833  0.36001011  0.39053832     0.01950
C565        C  0.43468686  0.32251614  0.37978520    -0.00370
C566        C  0.42270097  0.31390034  0.34289979    -0.12100
C567        C  0.43393759  0.34186375  0.31608733     0.01840
H568        H  0.48288869  0.41689862  0.37298162     0.14820
H569        H  0.40730922  0.28501258  0.33430366     0.14820
C570        C  0.42645182  0.32975143  0.27781275     0.36470
C571        C  0.47054055  0.37044492  0.42825299     0.36380
N572        N  0.42033744  0.31694903  0.24816390    -0.43870
N573        N  0.48203997  0.37935681  0.45824804    -0.43870
C574        C  0.68476144  0.56673820  0.12664146    -0.00280
C575        C  0.65322636  0.53648581  0.11040335    -0.12160
C576        C  0.61830924  0.52181612  0.12671575     0.01950
C577        C  0.61402791  0.53842096  0.15887966    -0.00370
C578        C  0.64483773  0.57060664  0.17339125    -0.12100
C579        C  0.68012347  0.58486943  0.15750637     0.01840
H580        H  0.65621886  0.52244698  0.08627668     0.14820
H581        H  0.64166674  0.58366489  0.19822524     0.14820
C582        C  0.71134300  0.61623227  0.17488408     0.36470
C583        C  0.58847098  0.48743376  0.11245157     0.36380
N584        N  0.73639928  0.64148909  0.18867480    -0.43870
N585        N  0.56517143  0.45945641  0.10095573    -0.43870
C586        C  0.68064237  0.57394449  0.38012945    -0.00280
C587        C  0.64751069  0.56336243  0.39944767    -0.12160
C588        C  0.61282858  0.54425423  0.38129976     0.01950
C589        C  0.61058693  0.53438468  0.34298594    -0.00370
C590        C  0.64405294  0.54591869  0.32365839    -0.12100
C591        C  0.67854982  0.56531978  0.34175591     0.01840
H592        H  0.64859356  0.56844597  0.42930621     0.14820
H593        H  0.64343919  0.53961748  0.29415375     0.14820
C594        C  0.71157113  0.57458858  0.32075161     0.36470
C595        C  0.58006551  0.53399303  0.40316284     0.36380
N596        N  0.73810349  0.58204833  0.30403559    -0.43870
N597        N  0.55379886  0.52582631  0.42067350    -0.43870
C598        C  0.56894402  0.62422536  0.18359680    -0.00280
C599        C  0.57960586  0.65676838  0.20409526    -0.12160
C600        C  0.59098620  0.69056139  0.18561766     0.01950
C601        C  0.59235715  0.69196177  0.14620389    -0.00370
C602        C  0.58290241  0.65971075  0.12586744    -0.12100
C603        C  0.57118512  0.62596206  0.14415325     0.01840
H604        H  0.57773118  0.65552222  0.23432250     0.14820
H605        H  0.58301803  0.66057482  0.09551983     0.14820
C606        C  0.56052377  0.59337685  0.12158097     0.36470
C607        C  0.59925543  0.72300265  0.20739176     0.36380
N608        N  0.55202380  0.56761675  0.10293494    -0.43870
N609        N  0.60581242  0.74906292  0.22472350    -0.43870
C610        C  0.55172316  0.60845855  0.32839635    -0.00280
C611        C  0.58293683  0.64307383  0.31922752    -0.12160
C612        C  0.59445202  0.67465292  0.34211654     0.01950
C613        C  0.57513737  0.67180164  0.37537004    -0.00370
C614        C  0.54517896  0.63685782  0.38523877    -0.12100
C615        C  0.53333565  0.60565952  0.36237893     0.01840
H616        H  0.59831050  0.64554597  0.29397407     0.14820
H617        H  0.53050553  0.63378467  0.41120011     0.14820
C618        C  0.50348704  0.57088433  0.37603054     0.36470
C619        C  0.62505290  0.70975006  0.33019321     0.36380
N620        N  0.47974060  0.54344913  0.38802214    -0.43870
N621        N  0.64957127  0.73794731  0.32063086    -0.43870
C622        C  0.32957033  0.43181779  0.13723120    -0.00280
C623        C  0.32539879  0.42184207  0.17518430    -0.12160
C624        C  0.35662410  0.43354536  0.19834779     0.01950
C625        C  0.39247053  0.45657299  0.18366476    -0.00370
C626        C  0.39647395  0.46483804  0.14539267    -0.12100
C627        C  0.36557319  0.45213209  0.12211451     0.01840
H628        H  0.29788324  0.40655726  0.18711445     0.14820
H629        H  0.42396443  0.48075367  0.13346658     0.14820
C630        C  0.37152163  0.46001141  0.08253924     0.36470
C631        C  0.35116191  0.42300480  0.23729711     0.36380
N632        N  0.37635213  0.46596519  0.05079528    -0.43870
N633        N  0.34658533  0.41428982  0.26845994    -0.43870
C634        C  0.33262317  0.42825571  0.37111804    -0.00280
C635        C  0.35149632  0.46340905  0.35374741    -0.12160
C636        C  0.38707920  0.47767139  0.33946954     0.01950
C637        C  0.40502181  0.45705228  0.34278739    -0.00370
C638        C  0.38567141  0.42090843  0.35767940    -0.12100
C639        C  0.34934683  0.40613698  0.37131683     0.01840
H640        H  0.33874724  0.48051989  0.35208174     0.14820
H641        H  0.39867032  0.40398690  0.35792524     0.14820
C642        C  0.32973909  0.36829321  0.38414860     0.36470
C643        C  0.40496912  0.51389567  0.32211551     0.36380
N644        N  0.31369948  0.33753507  0.39333080    -0.43870
N645        N  0.41939252  0.54294259  0.30831383    -0.43870
C646        C  0.93945169  0.53097911  0.16684797    -0.00280
C647        C  0.90608178  0.52595624  0.18179417    -0.12160
C648        C  0.88693835  0.54179917  0.16509404     0.01950
C649        C  0.90072279  0.56352049  0.13244392    -0.00370
C650        C  0.93430970  0.56933539  0.11752299    -0.12100
C651        C  0.95376308  0.55346169  0.13437118     0.01840
H652        H  0.89458337  0.50939635  0.20683097     0.14820
H653        H  0.94452306  0.58488462  0.09171054     0.14820
C654        C  0.98827166  0.56096742  0.11769741     0.36470
C655        C  0.85231085  0.53442321  0.18150545     0.36380
N656        N  0.01605681  0.56724042  0.10440203    -0.43870
N657        N  0.82451167  0.52847074  0.19449191    -0.43870
C658        C  0.93376840  0.53197905  0.34973520    -0.00280
C659        C  0.95094750  0.56966537  0.36016996    -0.12160
C660        C  0.93037531  0.58561150  0.37356912     0.01950
C661        C  0.89152824  0.56368226  0.37631665    -0.00370
C662        C  0.87460364  0.52601542  0.36522794    -0.12100
C663        C  0.89514562  0.51023292  0.35225918     0.01840
H664        H  0.98042289  0.58724309  0.35634058     0.14820
H665        H  0.84481218  0.50830063  0.36670551     0.14820
C666        C  0.87592631  0.47148545  0.34181851     0.36470
C667        C  0.95002728  0.62431571  0.38379930     0.36380
N668        N  0.86059961  0.44044238  0.33351238    -0.43870
N669        N  0.96634851  0.65542957  0.39181029    -0.43870
C670        C  0.94402869  0.38396297  0.18277158    -0.00280
C671        C  0.95437010  0.35831642  0.17058857    -0.12160
C672        C  0.93011597  0.32701144  0.14935024     0.01950
C673        C  0.89433548  0.32048892  0.14083047    -0.00370
C674        C  0.88392273  0.34577005  0.15437273    -0.12100
C675        C  0.90837949  0.37736453  0.17459439     0.01840
H676        H  0.98174598  0.36307084  0.17719848     0.14820
H677        H  0.85634078  0.34105559  0.14951713     0.14820
C678        C  0.89555789  0.40166379  0.18801824     0.36470
C679        C  0.94314795  0.30292096  0.13598767     0.36380
N680        N  0.88519138  0.42103244  0.19879338    -0.43870
N681        N  0.95394891  0.28387448  0.12532502    -0.43870
C682        C  0.93881650  0.39619113  0.33907454    -0.00280
C683        C  0.92288694  0.36301274  0.31805688    -0.12160
C684        C  0.90590965  0.32802584  0.33560412     0.01950
C685        C  0.90465186  0.32540748  0.37495759    -0.00370
C686        C  0.91985401  0.35836785  0.39597327    -0.12100
C687        C  0.93684838  0.39339388  0.37858678     0.01840
H688        H  0.92421743  0.36429575  0.28776209     0.14820
H689        H  0.91700846  0.35666642  0.42618073     0.14820
C690        C  0.95044772  0.42591691  0.40198582     0.36470
C691        C  0.88858042  0.29504881  0.31268260     0.36380
N692        N  0.96124045  0.45205469  0.42061965    -0.43870
N693        N  0.87455315  0.26854024  0.29441401    -0.43870
C694        C  0.12802119  0.45083838  0.13011157    -0.00280
C695        C  0.13657828  0.48821689  0.13250424    -0.12160
C696        C  0.11382342  0.49836162  0.15134025     0.01950
C697        C  0.08126961  0.47111479  0.16822090    -0.00370
C698        C  0.07249903  0.43381921  0.16679320    -0.12100
C699        C  0.09538571  0.42342239  0.14771712     0.01840
H700        H  0.16118335  0.51031089  0.11972558     0.14820
H701        H  0.04738770  0.41271918  0.18007503     0.14820
C702        C  0.08452398  0.38465115  0.14654481     0.36470
C703        C  0.12544301  0.53722030  0.15464646     0.36380
N704        N  0.07564439  0.35350407  0.14559482    -0.43870
N705        N  0.13499482  0.56836067  0.15790115    -0.43870
C706        C  0.08296908  0.45712861  0.32335096    -0.00280
C707        C  0.12140195  0.48125491  0.32256285    -0.12160
C708        C  0.14569490  0.47144761  0.33951709     0.01950
C709        C  0.13163450  0.43758199  0.35948347    -0.00370
C710        C  0.09355689  0.41283962  0.35849843    -0.12100
C711        C  0.06927140  0.42201984  0.34074297     0.01840
H712        H  0.13256682  0.50765067  0.30815661     0.14820
H713        H  0.08249452  0.38647890  0.37255032     0.14820
C714        C  0.03035093  0.39508438  0.34253574     0.36470
C715        C  0.18494661  0.49589406  0.33443794     0.36380
N716        N  0.99942210  0.37264565  0.34439178    -0.43870
N717        N  0.21640987  0.51531313  0.33014077    -0.43870
C718        C  0.07712064  0.61799507  0.19384846    -0.00280
C719        C  0.11480662  0.62944910  0.19147901    -0.12160
C720        C  0.13926267  0.66071181  0.17051172     0.01950
C721        C  0.12608254  0.68098001  0.15000061    -0.00370
C722        C  0.08916673  0.67165763  0.15493616    -0.12100
C723        C  0.06484428  0.64094892  0.17696690     0.01840
H724        H  0.12530484  0.61380122  0.20606982     0.14820
H725        H  0.07887056  0.68753601  0.14042188     0.14820
C726        C  0.02741085  0.63366484  0.18087895     0.36470
C727        C  0.17797455  0.67169119  0.17159101     0.36380
N728        N  0.99761828  0.62840603  0.18423904    -0.43870
N729        N  0.20896083  0.68034361  0.17267451    -0.43870
C730        C  0.06756549  0.62389718  0.32886863    -0.00280
C731        C  0.09222217  0.65539965  0.30839562    -0.12160
C732        C  0.11403514  0.68942971  0.32662206     0.01950
C733        C  0.10981507  0.69238355  0.36541150    -0.00370
C734        C  0.08412268  0.66123214  0.38546153    -0.12100
C735        C  0.06364384  0.62691864  0.36774259     0.01840
H736        H  0.09562008  0.65300358  0.27863322     0.14820
H737        H  0.08220847  0.66308520  0.41557979     0.14820
C738        C  0.04084304  0.59491099  0.39069957     0.36470
C739        C  0.14228125  0.72027141  0.30565992     0.36380
N740        N  0.02283550  0.56959329  0.40960711    -0.43870
N741        N  0.16518198  0.74496425  0.28905415    -0.43870
C742        C  0.33763160  0.88143813  0.12936443    -0.00280
C743        C  0.36977693  0.87941025  0.12225110    -0.12160
C744        C  0.40338397  0.90317949  0.13987177     0.01950
C745        C  0.40580850  0.93024988  0.16495610    -0.00370
C746        C  0.37405837  0.93285905  0.17197718    -0.12100
C747        C  0.34018022  0.90893014  0.15426553     0.01840
H748        H  0.36897552  0.85903597  0.10291486     0.14820
H749        H  0.37582157  0.95387624  0.19113106     0.14820
C750        C  0.30854849  0.91283827  0.16265168     0.36470
C751        C  0.43446615  0.89780284  0.13347955     0.36380
N752        N  0.28325697  0.91615807  0.16922527    -0.43870
N753        N  0.45945265  0.89350165  0.12896195    -0.43870
C754        C  0.32602173  0.89121596  0.37124659    -0.00280
C755        C  0.36004761  0.89595844  0.38347639    -0.12160
C756        C  0.39230253  0.91621489  0.36242246     0.01950
C757        C  0.39095769  0.93177132  0.32768290    -0.00370
C758        C  0.35707431  0.92805291  0.31588009    -0.12100
C759        C  0.32464463  0.90771243  0.33725151     0.01840
H760        H  0.36139484  0.88350780  0.40967865     0.14820
H761        H  0.35573835  0.94019945  0.28949874     0.14820
C762        C  0.28997905  0.90203664  0.32262844     0.36470
C763        C  0.42668672  0.92185662  0.37801898     0.36380
N764        N  0.26207388  0.89719254  0.31087507    -0.43870
N765        N  0.45428419  0.92664444  0.39060149    -0.43870
C766        C  0.57528810  0.89076418  0.14125078    -0.00280
C767        C  0.54134470  0.87386237  0.16082258    -0.12160
C768        C  0.53049933  0.89448158  0.18327583     0.01950
C769        C  0.55369202  0.93321299  0.18671357    -0.00370
C770        C  0.58787649  0.95009247  0.16762845    -0.12100
C771        C  0.59868845  0.92949957  0.14502649     0.01840
H772        H  0.52291193  0.84413143  0.15860937     0.14820
H773        H  0.60597399  0.97991859  0.16946298     0.14820
C774        C  0.63291951  0.94939234  0.12455649     0.36470
C775        C  0.49582930  0.87498049  0.20311982     0.36380
N776        N  0.66034573  0.96574807  0.10814424    -0.43870
N777        N  0.46802889  0.85928803  0.21901707    -0.43870
C778        C  0.55959103  0.93162239  0.33014270    -0.00280
C779        C  0.54225423  0.91801874  0.36473158    -0.12160
C780        C  0.54961434  0.89459589  0.38635839     0.01950
C781        C  0.57396698  0.88299804  0.37296788    -0.00370
C782        C  0.59255678  0.89761024  0.33895557    -0.12100
C783        C  0.58565814  0.92196717  0.31753699     0.01840
H784        H  0.52308286  0.92623366  0.37527096     0.14820
H785        H  0.61133920  0.88890995  0.32844587     0.14820
C786        C  0.60392393  0.93486598  0.28194867     0.36470
C787        C  0.53275209  0.88417223  0.42290754     0.36380
N788        N  0.61861816  0.94505763  0.25338745    -0.43870
N789        N  0.51936998  0.87641224  0.45227369    -0.43870
C790        C  0.67745157  0.10827597  0.12657850    -0.00280
C791        C  0.67812000  0.10877940  0.16566105    -0.12160
C792        C  0.64531740  0.09026561  0.18661561     0.01950
C793        C  0.61020772  0.07064303  0.16856323    -0.00370
C794        C  0.60984060  0.06866432  0.12922073    -0.12100
C795        C  0.64289019  0.08752574  0.10831978     0.01840
H796        H  0.70439437  0.12502117  0.17997577     0.14820
H797        H  0.58363857  0.05312148  0.11466924     0.14820
C798        C  0.64072616  0.08563502  0.06799540     0.36470
C799        C  0.64923739  0.09145163  0.22673932     0.36380
N800        N  0.63905706  0.08398254  0.03566156    -0.43870
N801        N  0.65319657  0.09250597  0.25882872    -0.43870
C802        C  0.68525381  0.11168520  0.37807493    -0.00280
C803        C  0.66073283  0.07701746  0.39390006    -0.12160
C804        C  0.62370935  0.05643349  0.38146255     0.01950
C805        C  0.61088104  0.07078159  0.35275340    -0.00370
C806        C  0.63545638  0.10613234  0.33835091    -0.12100
C807        C  0.67219829  0.12596315  0.34987980     0.01840
H808        H  0.67008636  0.06664106  0.41677604     0.14820
H809        H  0.62635576  0.11800081  0.31666409     0.14820
C810        C  0.69629184  0.16103242  0.33172629     0.36470
C811        C  0.59967924  0.02120697  0.39907367     0.36380
N812        N  0.71564663  0.18904596  0.31718905    -0.43870
N813        N  0.58049264  0.99320110  0.41369345    -0.43870
C814        C  0.45542051  0.06709273  0.18158882    -0.00280
C815        C  0.45572085  0.06400800  0.14246984    -0.12160
C816        C  0.44363012  0.08315045  0.11941625     0.01950
C817        C  0.43190137  0.10637084  0.13554837    -0.00370
C818        C  0.43148727  0.10941946  0.17437903    -0.12100
C819        C  0.44258960  0.08972666  0.19745918     0.01840
H820        H  0.46412230  0.04566337  0.12999437     0.14820
H821        H  0.42313290  0.12787618  0.18670847     0.14820
C822        C  0.44059356  0.09364186  0.23735258     0.36470
C823        C  0.44254704  0.07796737  0.07938774     0.36380
N824        N  0.43818810  0.09683522  0.26919914    -0.43870
N825        N  0.44138752  0.07362831  0.04731603    -0.43870
C826        C  0.47643574  0.07287707  0.33987437    -0.00280
C827        C  0.44547279  0.05669390  0.36399227    -0.12160
C828        C  0.43177331  0.07807670  0.38094515     0.01950
C829        C  0.44923939  0.11661324  0.37422672    -0.00370
C830        C  0.48006247  0.13258407  0.35007461    -0.12100
C831        C  0.49354957  0.11136345  0.33297223     0.01840
H832        H  0.43152550  0.02706564  0.36922552     0.14820
H833        H  0.49416662  0.16221231  0.34478268     0.14820
C834        C  0.52536520  0.13000750  0.30876624     0.36470
C835        C  0.40090698  0.06018068  0.40634647     0.36380
N836        N  0.55078943  0.14495285  0.28928145    -0.43870
N837        N  0.37618837  0.04584680  0.42677787    -0.43870
O838        O  0.44943914  0.94423577  0.80371324    -0.80260
O839        O  0.50980960  0.94977674  0.71110747    -0.80290
O840        O  0.44111484  0.96319131  0.71900643    -0.80300
O841        O  0.57360139  0.98746701  0.79717756    -0.80240
O842        O  0.47119863  0.97194544  0.66528882    -0.80360
O843        O  0.51521065  0.94582792  0.80792929    -0.80280
O844        O  0.56936762  0.98777763  0.72172847    -0.80260
O845        O  0.43177400  0.98326814  0.78937033    -0.80300
C846        C  0.42497226  0.95335744  0.80486954     1.09430
C847        C  0.54334252  0.95736305  0.70858949     1.09310
C848        C  0.44105681  0.95642336  0.68360186     1.09450
C849        C  0.54909369  0.95561462  0.80908645     1.09330
O850        O  0.54973613  0.01711691  0.84356310    -0.80270
O851        O  0.49057503  0.03699893  0.69888494    -0.80340
O852        O  0.49598017  0.05427959  0.78513230    -0.80280
O853        O  0.57349104  0.05972533  0.72374651    -0.80260
O854        O  0.54660269  0.02128636  0.67849735    -0.80310
O855        O  0.48423701  0.01939024  0.83540295    -0.80280
O856        O  0.57374446  0.05794849  0.79914587    -0.80230
O857        O  0.44175816  0.02656142  0.73241205    -0.80300
Co858      Co  0.50006044  0.98232470  0.81888607     1.51530
Co859      Co  0.49949511  0.99171987  0.70940495     1.51690
Co860      Co  0.47261867  0.01033065  0.75203767     1.51570
Co861      Co  0.56961113  0.02295543  0.76068694     1.51470
O862        O  0.51394104  0.00087432  0.76446598    -1.42200
C863        C  0.57542459  0.04833257  0.83201975     1.09350
C864        C  0.46299653  0.04251725  0.70522958     1.09440
C865        C  0.48765309  0.04852729  0.81958062     1.09380
C866        C  0.57459876  0.05073462  0.69041844     1.09350
O867        O  0.98688471  0.52474646  0.84233164    -0.80260
O868        O  0.97514963  0.44905785  0.70013877    -0.79990
O869        O  0.94943421  0.50415540  0.72136908    -0.80300
O870        O  0.95582394  0.43482441  0.78461958    -0.80240
O871        O  0.99077512  0.52023531  0.67875172    -0.80360
O872        O  0.98908194  0.45923191  0.83563318    -0.80280
O873        O  0.98637807  0.41028600  0.73252547    -0.80260
O874        O  0.94649299  0.50671337  0.79693655    -0.80300
C875        C  0.95563869  0.51819916  0.82987444     1.09430
C876        C  0.97006336  0.41592345  0.70578729     1.09310
C877        C  0.95978596  0.51589069  0.68870445     1.09450
C878        C  0.96113359  0.43253729  0.81924536     1.09330
O879        O  0.06531125  0.50236047  0.80777218    -0.80270
O880        O  0.06004773  0.55628653  0.71489655    -0.80340
O881        O  0.01487999  0.57808153  0.79685636    -0.80280
O882        O  0.04862316  0.47429232  0.72177118    -0.80260
O883        O  0.04101282  0.49613888  0.66788951    -0.80310
O884        O  0.05925421  0.56574466  0.81088743    -0.80280
O885        O  0.02780104  0.44527290  0.79148765    -0.80230
O886        O  0.01951390  0.57503632  0.72267079    -0.80300
Co887      Co  0.02467791  0.51272736  0.82038169     1.51530
Co888      Co  0.01955965  0.50344375  0.71141225     1.51690
Co889      Co  0.98289843  0.53827890  0.75963775     1.51570
Co890      Co  0.00049994  0.45717145  0.75299408     1.51470
O891        O  0.00770400  0.50735142  0.76552477    -1.42200
C892        C  0.05787426  0.46897584  0.80631597     1.09350
C893        C  0.05139393  0.58158485  0.71229087     1.09440
C894        C  0.04682711  0.58787892  0.80994768     1.09380
C895        C  0.05566329  0.48083680  0.68647649     1.09350
O896        O  0.49349155  0.44313571  0.80584660    -0.80260
O897        O  0.55235669  0.52595289  0.66810325    -0.80290
O898        O  0.49219313  0.43229795  0.71963245    -0.80300
O899        O  0.57452583  0.50561418  0.78793955    -0.80240
O900        O  0.48331265  0.46044085  0.67184902    -0.80360
O901        O  0.54591406  0.51460400  0.83264237    -0.80280
O902        O  0.57881626  0.51101856  0.71253386    -0.80260
O903        O  0.44178067  0.40637747  0.77535138    -0.80300
C904        C  0.46426476  0.41070195  0.80106237     1.09430
C905        C  0.57895170  0.52196939  0.67977697     1.09310
C906        C  0.48220636  0.43176868  0.68594575     1.09450
C907        C  0.57482478  0.51524565  0.82130334     1.09330
O908        O  0.50895354  0.54811548  0.80243650    -0.80270
O909        O  0.45235523  0.50218749  0.70518944    -0.80340
O910        O  0.44332661  0.47023466  0.78956054    -0.80280
O911        O  0.57792201  0.57968226  0.71575053    -0.80260
O912        O  0.52070101  0.56560522  0.70297782    -0.80310
O913        O  0.47070814  0.48280069  0.84472244    -0.80280
O914        O  0.56889084  0.57277685  0.79060480    -0.80230
O915        O  0.43220777  0.44469841  0.72062626    -0.80300
Co916      Co  0.50019661  0.49647411  0.80025817     1.51530
Co917      Co  0.50278379  0.51310126  0.69101156     1.51690
Co918      Co  0.47300767  0.45420483  0.75580617     1.51570
Co919      Co  0.57168736  0.53939317  0.75144146     1.51470
O920        O  0.51568003  0.50555995  0.74512319    -1.42200
C921        C  0.54221420  0.57507069  0.80500116     1.09350
C922        C  0.42658190  0.46876290  0.70573344     1.09440
C923        C  0.44135499  0.47038320  0.82544705     1.09380
C924        C  0.55501341  0.58853157  0.70311188     1.09350
C925        C  0.86673636  0.57624409  0.89281576     0.42330
N926        N  0.81887588  0.56727857  0.92368113     0.01220
C927        C  0.79034380  0.67747155  0.54732670    -0.06660
H928        H  0.91580348  0.67532914  0.56791217     0.06710
C929        C  0.84129216  0.54010392  0.59412219    -0.07010
Co930      Co  0.82202366  0.63331691  0.95945473     0.74180
N931        N  0.87230434  0.65549420  0.52663462    -0.26190
Co932      Co  0.82405968  0.62599508  0.55771894     0.74070
C933        C  0.87526428  0.57007445  0.60884565     0.42430
N934        N  0.79495582  0.50599517  0.51522879     0.00840
N935        N  0.84482105  0.59280420  0.58171855     0.00940
N936        N  0.78931891  0.68153108  0.98426623    -0.47030
H937        H  0.89609916  0.63961065  0.90556189     0.06700
N938        N  0.87227533  0.65897851  0.98976209     0.01230
N939        N  0.77321380  0.59408473  0.58640547     0.00970
C940        C  0.72136159  0.57237632  0.61551097     0.42570
N941        N  0.79341916  0.50856458  0.97869455    -0.25640
C942        C  0.74782143  0.61662160  0.91355851    -0.06560
N943        N  0.83289958  0.55071103  0.90407742    -0.46750
N944        N  0.75192424  0.60440511  0.60448935    -0.46970
C945        C  0.71413138  0.58189420  0.90200736     0.42340
N946        N  0.80305206  0.66037849  0.99486405     0.01210
N947        N  0.72457149  0.51009329  0.98520563    -0.25660
N948        N  0.84068792  0.60342416  0.92631606    -0.26160
N949        N  0.72581998  0.50710795  0.52168899     0.00850
H950        H  0.67955823  0.48899527  0.94561362     0.06740
H951        H  0.70641820  0.51245113  0.60456499     0.06780
N952        N  0.80381534  0.65743779  0.53171899    -0.26210
N953        N  0.82476264  0.55655278  0.57766955    -0.25820
N954        N  0.75134113  0.56890582  0.93036630     0.01220
C955        C  0.92947563  0.68919247  0.50574877     0.42620
C956        C  0.80903491  0.49081023  0.96292612    -0.07070
N957        N  0.75721555  0.55774507  0.58410772    -0.25820
H958        H  0.83053562  0.51052531  0.59585205     0.06760
N959        N  0.90624085  0.67917255  0.97605660    -0.47040
H960        H  0.81148082  0.48762263  0.93327155     0.06750
C961        C  0.66827147  0.47857211  0.50839409     0.42450
C962        C  0.87225651  0.61209690  0.90757302    -0.06570
Co963      Co  0.77170896  0.53829922  0.95405992     0.73820
N964        N  0.81081600  0.48691867  0.52578130    -0.46760
C965        C  0.78033664  0.69313895  0.51579759     0.42720
N966        N  0.71908907  0.55410484  0.91319949    -0.46750
Co967      Co  0.77551312  0.53128823  0.55007529     0.73890
C968        C  0.72569655  0.54193756  0.60290721    -0.07070
C969        C  0.90718609  0.67342029  0.53906770    -0.06640
N970        N  0.76941175  0.60548808  0.93127793    -0.26160
N971        N  0.87595398  0.60243294  0.60074025    -0.46930
H972        H  0.78845868  0.68089402  0.57704395     0.06720
C973        C  0.68932802  0.49255863  0.97416479    -0.07050
Cl974      Cl  0.79863165  0.58283452  0.50533491    -0.50050
C975        C  0.82117230  0.47715059  0.49421560     0.42480
H976        H  0.75446030  0.64505760  0.90969880     0.06690
N977        N  0.69264638  0.48757685  0.53661552    -0.46760
C978        C  0.72091671  0.13714752  0.89624888     0.42330
N979        N  0.75993961  0.18665865  0.92436872     0.01220
C980        C  0.90394729  0.22168720  0.54366423    -0.06660
H981        H  0.77695874  0.09420657  0.56786586     0.06710
C982        C  0.71543867  0.17076581  0.59201466    -0.07010
Co983      Co  0.82496449  0.18645490  0.95827773     0.74180
N984        N  0.79900845  0.13797613  0.52656176    -0.26190
Co985      Co  0.81842789  0.18750416  0.55641965     0.74070
C986        C  0.71096407  0.13629377  0.60613298     0.42430
N987        N  0.72745987  0.21746406  0.51423757     0.00840
N988        N  0.76499910  0.16786606  0.58082207     0.00940
N989        N  0.90659017  0.22090921  0.98049115    -0.47030
H990        H  0.75556689  0.10903912  0.90861439     0.06700
N991        N  0.80125943  0.13767978  0.98963963     0.01230
N992        N  0.83795652  0.23900004  0.58442059     0.00970
C993        C  0.86736494  0.28936604  0.61675146     0.42570
N994        N  0.72998384  0.21674451  0.97765854    -0.25640
C995        C  0.88063492  0.25830099  0.90832468    -0.06560
N996        N  0.72825570  0.17098806  0.90641730    -0.46750
N997        N  0.86737736  0.25786256  0.60648315    -0.46970
C998        C  0.87807366  0.29033059  0.89393910     0.42340
N999        N  0.87211525  0.20702033  0.99231349     0.01210
N1000       N  0.80151930  0.28470038  0.98003879    -0.25660
N1001       N  0.77512606  0.16567525  0.92702928    -0.26160
N1002       N  0.79809801  0.28634252  0.51643272     0.00850
H1003       H  0.82502288  0.32589349  0.93692032     0.06740
H1004       H  0.82616047  0.30805749  0.59954327     0.06780
N1005       N  0.86972455  0.20729324  0.52927770    -0.26210
N1006       N  0.74910010  0.18816616  0.57664432    -0.25820
N1007       N  0.82951820  0.25448347  0.92529616     0.01220
C1008       C  0.77491107  0.08047130  0.50517656     0.42620
C1009       C  0.69625203  0.20296916  0.96290084    -0.07070
N1010       N  0.81952144  0.25669863  0.57990258    -0.25820
H1011       H  0.69604429  0.18073372  0.59265433     0.06760
N1012       N  0.78674400  0.10375541  0.97572782    -0.47040
H1013       H  0.68956892  0.19993267  0.93341756     0.06750
C1014       C  0.82434060  0.34258961  0.49762527     0.42450
C1015       C  0.75186980  0.13289027  0.91016312    -0.06570
Co1016     Co  0.78015391  0.23580165  0.95150524     0.73820
N1017       N  0.69336958  0.20518902  0.52590458    -0.46760
C1018       C  0.92839245  0.23048623  0.51120054     0.42720
N1019       N  0.84571085  0.28546464  0.90581396    -0.46750
Co1020     Co  0.77336010  0.23753738  0.54741596     0.73890
C1021       C  0.83564125  0.28824852  0.59900705    -0.07070
C1022       C  0.78288322  0.10288672  0.53897445    -0.06640
N1023       N  0.84865272  0.23730739  0.92744152    -0.26160
N1024       N  0.74293128  0.13619348  0.59886390    -0.46930
H1025       H  0.91071043  0.22595548  0.57309129     0.06720
C1026       C  0.81905898  0.31878033  0.96609610    -0.07050
Cl1027     Cl  0.79946492  0.21177140  0.50347851    -0.50050
C1028       C  0.67219038  0.19510526  0.49504550     0.42480
H1029       H  0.90276206  0.25220630  0.90508076     0.06690
N1030       N  0.81081205  0.32077380  0.52826647    -0.46760
C1031       C  0.29251530  0.86493079  0.89244172     0.42330
N1032       N  0.25692295  0.81675733  0.92477933     0.01220
C1033       C  0.11244473  0.77627575  0.54414788    -0.06660
H1034       H  0.24366576  0.90260012  0.57535538     0.06710
C1035       C  0.29631990  0.81872230  0.59515271    -0.07010
Co1036     Co  0.19292961  0.81776042  0.96062459     0.74180
N1037       N  0.21978906  0.86143786  0.53161640    -0.26190
Co1038     Co  0.19743158  0.80998952  0.55866865     0.74070
C1039       C  0.30232366  0.85315851  0.61152692     0.42430
N1040       N  0.28522900  0.77805504  0.51265484     0.00840
N1041       N  0.24949522  0.82596887  0.58335677     0.00940
N1042       N  0.11147282  0.78329856  0.98138699    -0.47030
H1043       H  0.25715232  0.89198253  0.90574591     0.06700
N1044       N  0.21790413  0.86408580  0.99489142     0.01230
N1045       N  0.17578521  0.75711749  0.58497686     0.00970
C1046       C  0.14939836  0.70893742  0.62104101     0.42570
N1047       N  0.28346272  0.78094389  0.97618056    -0.25640
C1048       C  0.13768655  0.75427246  0.90561915    -0.06560
N1049       N  0.28710194  0.83193404  0.90406891    -0.46750
N1050       N  0.14928404  0.74044115  0.61070738    -0.46970
C1051       C  0.13844830  0.72332209  0.88703180     0.42340
N1052       N  0.14566511  0.79677623  0.99402621     0.01210
N1053       N  0.21034977  0.71390081  0.97557599    -0.25660
N1054       N  0.24168451  0.83769779  0.92821887    -0.26160
N1055       N  0.21226711  0.71110516  0.51206752     0.00850
H1056       H  0.18568884  0.67352951  0.93172728     0.06740
H1057       H  0.18713516  0.68766307  0.59950688     0.06780
N1058       N  0.14710253  0.79310684  0.53074917    -0.26210
N1059       N  0.26378325  0.80445920  0.57793031    -0.25820
N1060       N  0.18528136  0.75068958  0.92294329     0.01220
C1061       C  0.24739054  0.92040635  0.51362349     0.42620
C1062       C  0.31744070  0.79544670  0.96196013    -0.07070
N1063       N  0.19256497  0.73812371  0.57832215    -0.25820
H1064       H  0.31381064  0.80649946  0.59539428     0.06760
N1065       N  0.23376046  0.89877858  0.98308566    -0.47040
H1066       H  0.32469684  0.80048152  0.93267720     0.06750
C1067       C  0.18149310  0.65468655  0.49329439     0.42450
C1068       C  0.26234316  0.86913354  0.90839590    -0.06570
Co1069     Co  0.23420975  0.76519380  0.94943821     0.73820
N1070       N  0.31916673  0.78954585  0.52467366    -0.46760
C1071       C  0.08902864  0.76993503  0.51133355     0.42720
N1072       N  0.16833230  0.72264144  0.89954236    -0.46750
Co1073     Co  0.23862583  0.75752469  0.54543969     0.73890
C1074       C  0.17769258  0.70747308  0.59900239    -0.07070
C1075       C  0.23800168  0.89583434  0.54600484    -0.06640
N1076       N  0.16843612  0.77002929  0.92698165    -0.26160
N1077       N  0.27201677  0.85601391  0.60328738    -0.46930
H1078       H  0.10461125  0.76876120  0.57303176     0.06720
C1079       C  0.19126330  0.67977174  0.96115383    -0.07050
Cl1080     Cl  0.21563205  0.78765931  0.50358762    -0.50050
C1081       C  0.34096257  0.80148405  0.49426813     0.42480
H1082       H  0.11811168  0.76387915  0.90262856     0.06690
N1083       N  0.19592030  0.67639482  0.52371957    -0.46760
C1084       C  0.47702511  0.80259624  0.50438383     0.42330
N1085       N  0.51114423  0.77966273  0.99184617     0.01220
C1086       C  0.62787036  0.75526296  0.60862171    -0.06660
H1087       H  0.64665729  0.89299534  0.60632402     0.06710
C1088       C  0.67737782  0.89566101  0.96530748    -0.07010
Co1089     Co  0.54455200  0.76712925  0.55929695     0.74180
N1090       N  0.60873628  0.83976272  0.58166482    -0.26190
Co1091     Co  0.63934524  0.81910752  0.55262630     0.74070
C1092       C  0.69107140  0.92088853  0.49728289     0.42430
N1093       N  0.59879561  0.82508228  0.92510595     0.00840
N1094       N  0.66286934  0.86500253  0.51735719     0.00940
N1095       N  0.56538377  0.72369101  0.61175917    -0.47030
H1096       H  0.48698293  0.80221417  0.56778652     0.06700
N1097       N  0.57240915  0.81896146  0.58347733     0.01230
N1098       N  0.66769092  0.79761140  0.52251466     0.00970
C1099       C  0.70275938  0.77562636  0.50769096     0.42570
N1100       N  0.56260745  0.80493305  0.92897791    -0.25640
C1101       C  0.50208744  0.68142251  0.54924763    -0.06560
N1102       N  0.48961508  0.79054215  0.97639925    -0.46750
N1103       N  0.68975314  0.78641555  0.53682118    -0.46970
C1104       C  0.49023469  0.65593423  0.51730126     0.42340
N1105       N  0.57759931  0.75251944  0.58915235     0.01210
N1106       N  0.56590794  0.73762426  0.93397852    -0.25660
N1107       N  0.51283724  0.78289590  0.52850210    -0.26160
N1108       N  0.60203637  0.75547148  0.92935396     0.00850
H1109       H  0.52099326  0.68636679  0.91356325     0.06740
H1110       H  0.68882976  0.77412218  0.94502484     0.06780
N1111       N  0.61398388  0.77166667  0.58666787    -0.26210
N1112       N  0.66032219  0.86156360  0.98047388    -0.25820
N1113       N  0.51572607  0.71215549  0.99743220     0.01220
C1114       C  0.58344085  0.86689394  0.61608103     0.42620
C1115       C  0.54662399  0.82020229  0.90903135    -0.07070
N1116       N  0.66491013  0.79406400  0.98563998    -0.25820
H1117       H  0.68002968  0.90191754  0.93573120     0.06760
N1118       N  0.55659373  0.83376307  0.60357782    -0.47040
H1119       H  0.51721682  0.80982724  0.90694689     0.06750
C1120       C  0.58075531  0.70422653  0.89823889     0.42450
C1121       C  0.49184869  0.79715189  0.53926754    -0.06570
Co1122     Co  0.53829599  0.75830707  0.96284424     0.73820
N1123       N  0.60888383  0.85470577  0.90356071    -0.46760
C1124       C  0.59533017  0.72383464  0.62559361     0.42720
N1125       N  0.49931545  0.67726527  0.98632159    -0.46750
Co1126     Co  0.63256111  0.80940166  0.95431108     0.73890
C1127       C  0.68601332  0.78032969  0.97378084    -0.07070
C1128       C  0.61854467  0.87101457  0.60156204    -0.06640
N1129       N  0.51783998  0.71538941  0.53407960    -0.26160
N1130       N  0.68136602  0.89998275  0.52849439    -0.46930
H1131       H  0.65685609  0.76423169  0.61231365     0.06720
C1132       C  0.55039916  0.70570377  0.91553521    -0.07050
Cl1133     Cl  0.58891005  0.78855639  0.50726327    -0.50050
C1134       C  0.57716448  0.85332100  0.89254342     0.42480
H1135       H  0.50012236  0.67600419  0.57886502     0.06690
N1136       N  0.61247093  0.73628336  0.90748936    -0.46760
C1137       C  0.15575501  0.42929423  0.88374885     0.42330
N1138       N  0.20010317  0.44006326  0.92149219     0.01220
C1139       C  0.22771553  0.32617150  0.54254594    -0.06660
H1140       H  0.10548424  0.33074942  0.56839482     0.06710
C1141       C  0.18883154  0.47118057  0.59322393    -0.07010
Co1142     Co  0.19573677  0.37285130  0.95698398     0.74180
N1143       N  0.14746123  0.35232126  0.52560860    -0.26190
Co1144     Co  0.19719951  0.38081699  0.55517754     0.74070
C1145       C  0.15433029  0.44283238  0.60934713     0.42430
N1146       N  0.23194754  0.50402864  0.51210769     0.00840
N1147       N  0.18050609  0.41678996  0.57980683     0.00940
N1148       N  0.22718048  0.32320211  0.97933737    -0.47030
H1149       H  0.12703157  0.36615320  0.89571848     0.06700
N1150       N  0.14622903  0.34929602  0.98866832     0.01230
N1151       N  0.24871037  0.41091689  0.58325874     0.00970
C1152       C  0.29804854  0.42945047  0.61604748     0.42570
N1153       N  0.23199756  0.50053907  0.97562118    -0.25640
C1154       C  0.26630283  0.38605591  0.90733669    -0.06560
N1155       N  0.18765714  0.45603715  0.89837922    -0.46750
N1156       N  0.26609961  0.39873956  0.60541287    -0.46970
C1157       C  0.29915007  0.42012452  0.89297441     0.42340
N1158       N  0.21407533  0.34445778  0.99128945     0.01210
N1159       N  0.29885151  0.49517746  0.97962935    -0.25660
N1160       N  0.17857890  0.40372629  0.92354489    -0.26160
N1161       N  0.29917523  0.49802412  0.51622336     0.00850
H1162       H  0.34149807  0.51284111  0.93855276     0.06740
H1163       H  0.31978954  0.49026733  0.60098335     0.06780
N1164       N  0.21446219  0.34710238  0.52824734    -0.26210
N1165       N  0.20241260  0.45279029  0.57544733    -0.25820
N1166       N  0.26562087  0.43487097  0.92562408     0.01220
C1167       C  0.08923144  0.31816878  0.50630730     0.42620
C1168       C  0.21729625  0.51897055  0.95958167    -0.07070
N1169       N  0.26782026  0.44727594  0.57910910    -0.25820
H1170       H  0.20237623  0.50106241  0.59440803     0.06760
N1171       N  0.11178769  0.32902513  0.97599359    -0.47040
H1172       H  0.21373974  0.51974936  0.92992978     0.06750
C1173       C  0.35660646  0.52359049  0.50150632     0.42450
C1174       C  0.14926771  0.39413901  0.90075482    -0.06570
Co1175     Co  0.24934182  0.46801941  0.95033945     0.73820
N1176       N  0.21708353  0.52420180  0.52242438    -0.46760
C1177       C  0.23596323  0.31023789  0.50997214     0.42720
N1178       N  0.29601827  0.44847439  0.90584753    -0.46750
Co1179     Co  0.25059332  0.47609905  0.54612928     0.73890
C1180       C  0.29888164  0.46125507  0.59900000    -0.07070
C1181       C  0.11293940  0.33351791  0.53913061    -0.06640
N1182       N  0.24683884  0.39836171  0.92712747    -0.26160
N1183       N  0.15076544  0.40936559  0.60008579    -0.46930
H1184       H  0.23197377  0.32331071  0.57192343     0.06720
C1185       C  0.33381869  0.51098816  0.96752308    -0.07050
Cl1186     Cl  0.22299394  0.42417107  0.50217832    -0.50050
C1187       C  0.20679699  0.53433664  0.49059411     0.42480
H1188       H  0.25810111  0.35727270  0.90287796     0.06690
N1189       N  0.33292480  0.51494129  0.53036398    -0.46760
C1190       C  0.53519397  0.19168023  0.50808284     0.42330
N1191       N  0.50255804  0.21601210  0.99374430     0.01220
C1192       C  0.39275717  0.25797290  0.59930431    -0.06660
H1193       H  0.36439519  0.10981653  0.60391583     0.06710
C1194       C  0.33516748  0.10264805  0.97073339    -0.07010
Co1195     Co  0.47115594  0.23369691  0.55893268     0.74180
N1196       N  0.40453158  0.16439362  0.58325912    -0.26190
Co1197     Co  0.37589190  0.18535657  0.55269316     0.74070
C1198       C  0.32082801  0.07977241  0.50419733     0.42430
N1199       N  0.41658162  0.16901000  0.92776251     0.00840
N1200       N  0.35063587  0.13678495  0.52061729     0.00940
N1201       N  0.45498463  0.28568143  0.60192796    -0.47030
H1202       H  0.52664454  0.19586651  0.57126384     0.06700
N1203       N  0.44097396  0.18328507  0.58479315     0.01230
N1204       N  0.34875749  0.20594705  0.51986807     0.00970
C1205       C  0.31703816  0.23083950  0.50203506     0.42570
N1206       N  0.45263036  0.19081986  0.93089503    -0.25640
C1207       C  0.52028144  0.31820230  0.54531129    -0.06560
N1208       N  0.52260926  0.20296275  0.97936916    -0.46750
N1209       N  0.32851001  0.22001671  0.53236082    -0.46970
C1210       C  0.53362982  0.34175183  0.51232911     0.42340
N1211       N  0.44033512  0.25297496  0.58548091     0.01210
N1212       N  0.44951029  0.25837723  0.93333270    -0.25660
N1213       N  0.50117810  0.21438817  0.53048054    -0.26160
N1214       N  0.41338971  0.23954475  0.92859010     0.00850
H1215       H  0.49240710  0.31297046  0.91710014     0.06740
H1216       H  0.32874207  0.22600793  0.93985909     0.06780
N1217       N  0.40394461  0.23594232  0.58294902    -0.26210
N1218       N  0.35336870  0.13752438  0.98367311    -0.25820
N1219       N  0.50145896  0.28531877  0.99502351     0.01220
C1220       C  0.42682436  0.13283188  0.61292985     0.42620
C1221       C  0.47010962  0.17695040  0.91154603    -0.07070
N1222       N  0.35112934  0.20650760  0.98290870    -0.25820
H1223       H  0.33293427  0.09446257  0.94171089     0.06760
N1224       N  0.45534516  0.16559544  0.60234909    -0.47040
H1225       H  0.49978015  0.18914112  0.90945301     0.06750
C1226       C  0.43181297  0.29259572  0.90352352     0.42450
C1227       C  0.52145630  0.19961839  0.54240258    -0.06570
Co1228     Co  0.47694094  0.23799152  0.96289941     0.73820
N1229       N  0.40823822  0.13892751  0.90717371    -0.46760
C1230       C  0.42711443  0.29116533  0.61160748     0.42720
N1231       N  0.52187490  0.31939469  0.98225613    -0.46750
Co1232     Co  0.38255666  0.18733098  0.95456671     0.73890
C1233       C  0.33181295  0.22169562  0.96916708    -0.07070
C1234       C  0.39280587  0.13184953  0.60105893    -0.06640
N1235       N  0.50023604  0.28378839  0.53173616    -0.26160
N1236       N  0.33172765  0.10263653  0.53401809    -0.46930
H1237       H  0.36462403  0.25255863  0.60047649     0.06720
C1238       C  0.46353431  0.29174748  0.91787907    -0.07050
Cl1239     Cl  0.42615744  0.21079807  0.50725524    -0.50050
C1240       C  0.44123117  0.14251151  0.89609319     0.42480
H1241       H  0.52558617  0.32574380  0.57453783     0.06690
N1242       N  0.40137324  0.25906108  0.90992825    -0.46760
C1243       C  0.29633495  0.25123084  0.50366417    -0.00280
C1244       C  0.26797184  0.24064848  0.53020684    -0.12160
C1245       C  0.24780063  0.25927423  0.53279538     0.01950
C1246       C  0.25615699  0.28936917  0.50874000    -0.00370
C1247       C  0.28466016  0.30007785  0.98248526    -0.12100
C1248       C  0.30489982  0.28163388  0.97994948     0.01840
H1249       H  0.26114847  0.21736446  0.54859626     0.14820
H1250       H  0.29183427  0.32373216  0.96459022     0.14820
C1251       C  0.33586363  0.29610913  0.95452856     0.36470
C1252       C  0.21761061  0.24587399  0.55908958     0.36380
N1253       N  0.36084558  0.30793330  0.93433717    -0.43870
N1254       N  0.19326144  0.23493137  0.58002181    -0.43870
C1255       C  0.46419960  0.61543919  0.51591749    -0.00280
C1256       C  0.45415028  0.59889548  0.98036847    -0.12160
C1257       C  0.42096934  0.56572265  0.97504703     0.01950
C1258       C  0.39690374  0.54928556  0.50568014    -0.00370
C1259       C  0.41076623  0.56163681  0.54195188    -0.12100
C1260       C  0.44460741  0.59419961  0.54737797     0.01840
H1261       H  0.47082746  0.61322521  0.95612091     0.14820
H1262       H  0.39413774  0.54723763  0.56619762     0.14820
C1263       C  0.45759949  0.60487269  0.58525992     0.36470
C1264       C  0.41237388  0.55053556  0.93779195     0.36380
N1265       N  0.46776420  0.61252417  0.61586001    -0.43870
N1266       N  0.40611677  0.53866884  0.90771484    -0.43870
C1267       C  0.30144974  0.03907179  0.50665635    -0.00280
C1268       C  0.31310414  0.02260731  0.53359855    -0.12160
C1269       C  0.29618698  0.98396932  0.53634315     0.01950
C1270       C  0.26635681  0.96126421  0.51244093    -0.00370
C1271       C  0.25473501  0.97786355  0.98556416    -0.12100
C1272       C  0.27196832  0.01643579  0.98249129     0.01840
H1273       H  0.33625874  0.04000317  0.55176907     0.14820
H1274       H  0.23180344  0.96061800  0.96710474     0.14820
C1275       C  0.25782485  0.03200155  0.95545019     0.36470
C1276       C  0.31178320  0.96862516  0.56189639     0.36380
N1277       N  0.24635679  0.04442938  0.93387515    -0.43870
N1278       N  0.32474749  0.95653980  0.58207196    -0.43870
C1279       C  0.18998868  0.55826706  0.48934483    -0.00280
C1280       C  0.18060745  0.56814425  0.52349123    -0.12160
C1281       C  0.17227995  0.59666260  0.52503795     0.01950
C1282       C  0.17419687  0.61623778  0.49212313    -0.00370
C1283       C  0.17689739  0.60203393  0.95766993    -0.12100
C1284       C  0.18514564  0.57364944  0.95581732     0.01840
H1285       H  0.18152499  0.55492282  0.54930860     0.14820
H1286       H  0.17583385  0.61512194  0.93188568     0.14820
C1287       C  0.19078595  0.56389717  0.91878556     0.36470
C1288       C  0.16293122  0.60597920  0.56068965     0.36380
N1289       N  0.19508369  0.55759857  0.88828600    -0.43870
N1290       N  0.15503163  0.61343996  0.58905209    -0.43870
C1291       C  0.37719640  0.80472054  0.49366266    -0.00280
C1292       C  0.40511361  0.83083645  0.51707914    -0.12160
C1293       C  0.43887525  0.83172028  0.52013535     0.01950
C1294       C  0.44408987  0.80569703  0.50011543    -0.00370
C1295       C  0.41655824  0.78047526  0.97594359    -0.12100
C1296       C  0.38310334  0.77955744  0.97272622     0.01840
H1297       H  0.40038930  0.85020028  0.53306704     0.14820
H1298       H  0.42051674  0.76021942  0.96069808     0.14820
C1299       C  0.35447119  0.75054881  0.95013343     0.36470
C1300       C  0.46819624  0.86005719  0.54257594     0.36380
N1301       N  0.33154280  0.72717373  0.93219109    -0.43870
N1302       N  0.49231535  0.88284612  0.55991165    -0.43870
C1303       C  0.75462288  0.03972456  0.50221659    -0.00280
C1304       C  0.72448051  0.02247383  0.97751653    -0.12160
C1305       C  0.70341310  0.98369753  0.97513682     0.01950
C1306       C  0.71293321  0.96175009  0.49741842    -0.00370
C1307       C  0.74343215  0.97910466  0.52164610    -0.12100
C1308       C  0.76445924  0.01779494  0.52397442     0.01840
H1309       H  0.71672237  0.03931812  0.96090146     0.14820
H1310       H  0.75109412  0.96234875  0.53852344     0.14820
C1311       C  0.79701702  0.03434711  0.54744742     0.36470
C1312       C  0.67086813  0.96722791  0.95161509     0.36380
N1313       N  0.82334165  0.04763933  0.56592762    -0.43870
N1314       N  0.64462688  0.95408940  0.93300174    -0.43870
C1315       C  0.96958023  0.25086460  0.50998128    -0.00280
C1316       C  0.98722552  0.27305461  0.97863738    -0.12160
C1317       C  0.02588504  0.29427024  0.97642093     0.01950
C1318       C  0.04809736  0.29412969  0.50614225    -0.00370
C1319       C  0.03046760  0.27100930  0.53707488    -0.12100
C1320       C  0.99170929  0.24905239  0.53893476     0.01840
H1321       H  0.97072104  0.27446119  0.95591895     0.14820
H1322       H  0.04702101  0.26953269  0.55967241     0.14820
C1323       C  0.97568498  0.22340456  0.56971024     0.36470
C1324       C  0.04167883  0.31680708  0.94371014     0.36380
N1325       N  0.96299113  0.20253632  0.59418198    -0.43870
N1326       N  0.05379258  0.33451226  0.91707223    -0.43870
C1327       C  0.63562885  0.19098426  0.49513223    -0.00280
C1328       C  0.60991659  0.16715993  0.52160720    -0.12160
C1329       C  0.57630328  0.16618139  0.52627918     0.01950
C1330       C  0.56856319  0.18927188  0.50397956    -0.00370
C1331       C  0.59411014  0.21243052  0.97703106    -0.12100
C1332       C  0.62769597  0.21393242  0.97277334     0.01840
H1333       H  0.61651748  0.14998931  0.53915344     0.14820
H1334       H  0.58868716  0.23095624  0.96033162     0.14820
C1335       C  0.65453071  0.24185072  0.94793401     0.36470
C1336       C  0.55052587  0.14142459  0.55382424     0.36380
N1337       N  0.67599907  0.26448973  0.92828032    -0.43870
N1338       N  0.53020113  0.12148677  0.57609590    -0.43870
C1339       C  0.97027775  0.70927971  0.50440638    -0.00280
C1340       C  0.98894643  0.69421236  0.52373560    -0.12160
C1341       C  0.02759919  0.71326155  0.52585996     0.01950
C1342       C  0.04824994  0.74843697  0.50894382    -0.00370
C1343       C  0.02965920  0.76317039  0.98882355    -0.12100
C1344       C  0.99087963  0.74400924  0.98666776     0.01840
H1345       H  0.97322535  0.66731681  0.53710900     0.14820
H1346       H  0.04543032  0.79017212  0.97567563     0.14820
C1347       C  0.97283622  0.76159477  0.96839532     0.36470
C1348       C  0.04538726  0.69531595  0.54397846     0.36380
N1349       N  0.95836770  0.77585493  0.95408129    -0.43870
N1350       N  0.05964918  0.68078927  0.55817254    -0.43870
C1351       C  0.76234292  0.71619540  0.51613872    -0.00280
C1352       C  0.76904036  0.74045060  0.98600542    -0.12160
C1353       C  0.75117266  0.76123388  0.98340112     0.01950
C1354       C  0.72544815  0.75753792  0.51108151    -0.00370
C1355       C  0.71983010  0.73451635  0.54196278    -0.12100
C1356       C  0.73773283  0.71376150  0.54466138     0.01840
H1357       H  0.78840276  0.74324652  0.96431883     0.14820
H1358       H  0.70014457  0.73149677  0.56338107     0.14820
C1359       C  0.72814037  0.68854834  0.57580364     0.36470
C1360       C  0.76082008  0.78706422  0.95274347     0.36380
N1361       N  0.72003185  0.66839190  0.60090343    -0.43870
N1362       N  0.76880513  0.80791003  0.92826621    -0.43870
C1363       C  0.82866443  0.44659408  0.49264086    -0.00280
C1364       C  0.81214339  0.42117954  0.96351817    -0.12160
C1365       C  0.81046335  0.38724807  0.96446843     0.01950
C1366       C  0.82751235  0.37900944  0.49433993    -0.00370
C1367       C  0.84614523  0.40537685  0.52243777    -0.12100
C1368       C  0.84677750  0.43920820  0.52187873     0.01840
H1369       H  0.79755089  0.42626588  0.94130737     0.14820
H1370       H  0.85942207  0.39917295  0.54517902     0.14820
C1371       C  0.86585392  0.46556002  0.55155444     0.36470
C1372       C  0.78751945  0.36063251  0.93631851     0.36380
N1373       N  0.88136353  0.48654717  0.57536993    -0.43870
N1374       N  0.76895640  0.33962679  0.91366664    -0.43870
C1375       C  0.56772849  0.37704670  0.51135282    -0.00280
C1376       C  0.56700810  0.41002946  0.51646511    -0.12160
C1377       C  0.59981249  0.44410445  0.51503175     0.01950
C1378       C  0.63321483  0.44455602  0.50929942    -0.00370
C1379       C  0.63384231  0.41170210  0.00383360    -0.12100
C1380       C  0.60125732  0.37789193  0.00443466     0.01840
H1381       H  0.54108993  0.40934873  0.52089344     0.14820
H1382       H  0.65989846  0.41259100  0.99890061     0.14820
C1383       C  0.60286931  0.34451014  0.99768986     0.36470
C1384       C  0.59871455  0.47807267  0.51858428     0.36380
N1385       N  0.60402022  0.31776415  0.99201787    -0.43870
N1386       N  0.59791355  0.50534157  0.52129985    -0.43870
C1387       C  0.43426011  0.32761216  0.62594462    -0.00280
C1388       C  0.41768151  0.32999941  0.65882621    -0.12160
C1389       C  0.43086590  0.36439738  0.67685256     0.01950
C1390       C  0.46394112  0.39616023  0.66447371    -0.00370
C1391       C  0.47689644  0.39452243  0.62884403    -0.12100
C1392       C  0.46151760  0.36080605  0.60921018     0.01840
H1393       H  0.39433955  0.30516231  0.67024887     0.14820
H1394       H  0.49816001  0.41964688  0.61598444     0.14820
C1395       C  0.47033380  0.36107312  0.57031531     0.36470
C1396       C  0.40663148  0.36675267  0.70389509     0.36380
N1397       N  0.47507093  0.36047769  0.53855311    -0.43870
N1398       N  0.38509283  0.36655445  0.72435280    -0.43870
C1399       C  0.45580533  0.37963387  0.82668635    -0.00280
C1400       C  0.46665814  0.38815238  0.86417495    -0.12160
C1401       C  0.45684845  0.36001003  0.89053824     0.01950
C1402       C  0.43468696  0.32251607  0.87978511    -0.00370
C1403       C  0.42270103  0.31390029  0.84289971    -0.12100
C1404       C  0.43393761  0.34186371  0.81608727     0.01840
H1405       H  0.48288878  0.41689856  0.87298157     0.14820
H1406       H  0.40730926  0.28501253  0.83430356     0.14820
C1407       C  0.42645178  0.32975140  0.77781269     0.36470
C1408       C  0.47054071  0.37044482  0.92825290     0.36380
N1409       N  0.42033734  0.31694901  0.74816384    -0.43870
N1410       N  0.48204016  0.37935669  0.95824794    -0.43870
C1411       C  0.68476142  0.56673817  0.62664147    -0.00280
C1412       C  0.65322635  0.53648575  0.61040338    -0.12160
C1413       C  0.61830923  0.52181605  0.62671577     0.01950
C1414       C  0.61402788  0.53842091  0.65887965    -0.00370
C1415       C  0.64483768  0.57060662  0.67339122    -0.12100
C1416       C  0.68012343  0.58486942  0.65750636     0.01840
H1417       H  0.65621886  0.52244691  0.58627672     0.14820
H1418       H  0.64166668  0.58366488  0.69822519     0.14820
C1419       C  0.71134294  0.61623227  0.67488405     0.36470
C1420       C  0.58847099  0.48743364  0.61245163     0.36380
N1421       N  0.73639921  0.64148911  0.68867477    -0.43870
N1422       N  0.56517148  0.45945627  0.60095582    -0.43870
C1423       C  0.68064238  0.57394451  0.88012942    -0.00280
C1424       C  0.64751069  0.56336243  0.89944764    -0.12160
C1425       C  0.61282859  0.54425421  0.88129974     0.01950
C1426       C  0.61058694  0.53438466  0.84298592    -0.00370
C1427       C  0.64405295  0.54591869  0.82365836    -0.12100
C1428       C  0.67854983  0.56531980  0.84175588     0.01840
H1429       H  0.64859357  0.56844597  0.92930618     0.14820
H1430       H  0.64343920  0.53961747  0.79415372     0.14820
C1431       C  0.71157114  0.57458861  0.82075158     0.36470
C1432       C  0.58006552  0.53399298  0.90316283     0.36380
N1433       N  0.73810351  0.58204837  0.80403555    -0.43870
N1434       N  0.55379887  0.52582624  0.92067349    -0.43870
C1435       C  0.56894406  0.62422538  0.68359687    -0.00280
C1436       C  0.57960572  0.65676834  0.70409536    -0.12160
C1437       C  0.59098608  0.69056137  0.68561780     0.01950
C1438       C  0.59235723  0.69196183  0.64620404    -0.00370
C1439       C  0.58290268  0.65971088  0.62586756    -0.12100
C1440       C  0.57118537  0.62596217  0.64415333     0.01840
H1441       H  0.57773088  0.65552211  0.73432259     0.14820
H1442       H  0.58301844  0.66057502  0.59551995     0.14820
C1443       C  0.56052419  0.59337701  0.62158100     0.36470
C1444       C  0.59925516  0.72300257  0.70739193     0.36380
N1445       N  0.55202436  0.56761697  0.60293494    -0.43870
N1446       N  0.60581204  0.74906279  0.72472370    -0.43870
C1447       C  0.55172323  0.60845856  0.82839631    -0.00280
C1448       C  0.58293690  0.64307383  0.81922745    -0.12160
C1449       C  0.59445211  0.67465295  0.84211645     0.01950
C1450       C  0.57513748  0.67180168  0.87536996    -0.00370
C1451       C  0.54517906  0.63685788  0.88523872    -0.12100
C1452       C  0.53333573  0.60565956  0.86237890     0.01840
H1453       H  0.59831056  0.64554595  0.79397400     0.14820
H1454       H  0.53050564  0.63378475  0.91120005     0.14820
C1455       C  0.50348711  0.57088439  0.87603052     0.36470
C1456       C  0.62505297  0.70975007  0.83019308     0.36380
N1457       N  0.47974065  0.54344919  0.88802212    -0.43870
N1458       N  0.64957133  0.73794731  0.82063070    -0.43870
C1459       C  0.32957029  0.43181777  0.63723131    -0.00280
C1460       C  0.32539877  0.42184209  0.67518443    -0.12160
C1461       C  0.35662410  0.43354540  0.69834789     0.01950
C1462       C  0.39247052  0.45657300  0.68366482    -0.00370
C1463       C  0.39647391  0.46483800  0.64539272    -0.12100
C1464       C  0.36557313  0.45213204  0.62211458     0.01840
H1465       H  0.29788324  0.40655732  0.68711460     0.14820
H1466       H  0.42396438  0.48075361  0.63346661     0.14820
C1467       C  0.37152154  0.46001132  0.58253931     0.36470
C1468       C  0.35116194  0.42300487  0.73729722     0.36380
N1469       N  0.37635201  0.46596506  0.55079534    -0.43870
N1470       N  0.34658538  0.41428991  0.76846005    -0.43870
C1471       C  0.33262316  0.42825569  0.87111792    -0.00280
C1472       C  0.35149632  0.46340903  0.85374730    -0.12160
C1473       C  0.38707922  0.47767138  0.83946947     0.01950
C1474       C  0.40502183  0.45705228  0.84278737    -0.00370
C1475       C  0.38567143  0.42090843  0.85767936    -0.12100
C1476       C  0.34934683  0.40613697  0.87131674     0.01840
H1477       H  0.33874724  0.48051987  0.85208161     0.14820
H1478       H  0.39867033  0.40398690  0.85792522     0.14820
C1479       C  0.32973906  0.36829318  0.88414846     0.36470
C1480       C  0.40496914  0.51389565  0.82211543     0.36380
N1481       N  0.31369944  0.33753502  0.89333060    -0.43870
N1482       N  0.41939254  0.54294257  0.80831373    -0.43870
C1483       C  0.93945165  0.53097914  0.66684803    -0.00280
C1484       C  0.90608175  0.52595628  0.68179423    -0.12160
C1485       C  0.88693833  0.54179924  0.66509411     0.01950
C1486       C  0.90072279  0.56352056  0.63244399    -0.00370
C1487       C  0.93430969  0.56933545  0.61752307    -0.12100
C1488       C  0.95376305  0.55346173  0.63437125     0.01840
H1489       H  0.89458332  0.50939638  0.70683102     0.14820
H1490       H  0.94452306  0.58488470  0.59171063     0.14820
C1491       C  0.98827164  0.56096745  0.61769748     0.36470
C1492       C  0.85231083  0.53442328  0.68150551     0.36380
N1493       N  0.01605678  0.56724045  0.60440210    -0.43870
N1494       N  0.82451165  0.52847081  0.69449197    -0.43870
C1495       C  0.93376835  0.53197899  0.84973524    -0.00280
C1496       C  0.95094745  0.56966531  0.86016998    -0.12160
C1497       C  0.93037527  0.58561145  0.87356912     0.01950
C1498       C  0.89152819  0.56368220  0.87631664    -0.00370
C1499       C  0.87460360  0.52601536  0.86522796    -0.12100
C1500       C  0.89514557  0.51023285  0.85225922     0.01840
H1501       H  0.98042284  0.58724302  0.85634059     0.14820
H1502       H  0.84481213  0.50830058  0.86670553     0.14820
C1503       C  0.87592627  0.47148537  0.84181858     0.36470
C1504       C  0.95002724  0.62431566  0.88379928     0.36380
N1505       N  0.86059957  0.44044230  0.83351248    -0.43870
N1506       N  0.96634848  0.65542952  0.89181025    -0.43870
C1507       C  0.94402858  0.38396294  0.68277157    -0.00280
C1508       C  0.95436998  0.35831637  0.67058858    -0.12160
C1509       C  0.93011583  0.32701137  0.64935029     0.01950
C1510       C  0.89433534  0.32048886  0.64083052    -0.00370
C1511       C  0.88392261  0.34577001  0.65437276    -0.12100
C1512       C  0.90837938  0.37736450  0.67459439     0.01840
H1513       H  0.98174586  0.36307078  0.67719850     0.14820
H1514       H  0.85634066  0.34105555  0.64951716     0.14820
C1515       C  0.89555780  0.40166378  0.68801824     0.36470
C1516       C  0.94314779  0.30292087  0.63598775     0.36380
N1517       N  0.88519130  0.42103243  0.69879337    -0.43870
N1518       N  0.95394873  0.28387436  0.62532513    -0.43870
C1519       C  0.93881641  0.39619105  0.83907450    -0.00280
C1520       C  0.92288688  0.36301267  0.81805683    -0.12160
C1521       C  0.90590959  0.32802576  0.83560404     0.01950
C1522       C  0.90465178  0.32540737  0.87495751    -0.00370
C1523       C  0.91985389  0.35836774  0.89597321    -0.12100
C1524       C  0.93684825  0.39339378  0.87858675     0.01840
H1525       H  0.92421740  0.36429570  0.78776203     0.14820
H1526       H  0.91700831  0.35666629  0.92618067     0.14820
C1527       C  0.95044755  0.42591679  0.90198579     0.36470
C1528       C  0.88858039  0.29504874  0.81268251     0.36380
N1529       N  0.96124025  0.45205456  0.92061964    -0.43870
N1530       N  0.87455316  0.26854018  0.79441389    -0.43870
C1531       C  0.12802115  0.45083840  0.63011165    -0.00280
C1532       C  0.13657828  0.48821691  0.63250437    -0.12160
C1533       C  0.11382339  0.49836163  0.65134035     0.01950
C1534       C  0.08126954  0.47111479  0.66822092    -0.00370
C1535       C  0.07249893  0.43381920  0.66679317    -0.12100
C1536       C  0.09538563  0.42342239  0.64771712     0.01840
H1537       H  0.16118339  0.51031093  0.61972579     0.14820
H1538       H  0.04738757  0.41271915  0.68007494     0.14820
C1539       C  0.08452388  0.38465114  0.64654475     0.36470
C1540       C  0.12544300  0.53722031  0.65464662     0.36380
N1541       N  0.07564426  0.35350406  0.64559472    -0.43870
N1542       N  0.13499482  0.56836069  0.65790135    -0.43870
C1543       C  0.08296900  0.45712853  0.82335093    -0.00280
C1544       C  0.12140187  0.48125483  0.82256277    -0.12160
C1545       C  0.14569483  0.47144752  0.83951699     0.01950
C1546       C  0.13163444  0.43758191  0.85948339    -0.00370
C1547       C  0.09355682  0.41283956  0.85849841    -0.12100
C1548       C  0.06927132  0.42201978  0.84074296     0.01840
H1549       H  0.13256674  0.50765058  0.80815651     0.14820
H1550       H  0.08249445  0.38647886  0.87255033     0.14820
C1551       C  0.03035085  0.39508433  0.84253578     0.36470
C1552       C  0.18494653  0.49589396  0.83443782     0.36380
N1553       N  0.99942202  0.37264561  0.84439185    -0.43870
N1554       N  0.21640979  0.51531303  0.83014062    -0.43870
C1555       C  0.07712058  0.61799507  0.69384853    -0.00280
C1556       C  0.11480656  0.62944911  0.69147909    -0.12160
C1557       C  0.13926262  0.66071184  0.67051183     0.01950
C1558       C  0.12608249  0.68098004  0.65000072    -0.00370
C1559       C  0.08916667  0.67165765  0.65493626    -0.12100
C1560       C  0.06484422  0.64094893  0.67696698     0.01840
H1561       H  0.12530478  0.61380124  0.70606991     0.14820
H1562       H  0.07887051  0.68753603  0.64042198     0.14820
C1563       C  0.02741079  0.63366485  0.68087904     0.36470
C1564       C  0.17797450  0.67169123  0.67159114     0.36380
N1565       N  0.99761822  0.62840604  0.68423914    -0.43870
N1566       N  0.20896078  0.68034367  0.67267466    -0.43870
C1567       C  0.06756547  0.62389713  0.82886863    -0.00280
C1568       C  0.09222217  0.65539957  0.80839559    -0.12160
C1569       C  0.11403517  0.68942965  0.82662200     0.01950
C1570       C  0.10981510  0.69238354  0.86541143    -0.00370
C1571       C  0.08412269  0.66123216  0.88546148    -0.12100
C1572       C  0.06364383  0.62691865  0.86774258     0.01840
H1573       H  0.09562008  0.65300346  0.77863319     0.14820
H1574       H  0.08220849  0.66308526  0.91557974     0.14820
C1575       C  0.04084302  0.59491103  0.89069959     0.36470
C1576       C  0.14228128  0.72027131  0.80565983     0.36380
N1577       N  0.02283546  0.56959334  0.90960715    -0.43870
N1578       N  0.16518203  0.74496412  0.78905403    -0.43870
C1579       C  0.33763160  0.88143819  0.62936446    -0.00280
C1580       C  0.36977693  0.87941030  0.62225111    -0.12160
C1581       C  0.40338398  0.90317954  0.63987176     0.01950
C1582       C  0.40580852  0.93024995  0.66495609    -0.00370
C1583       C  0.37405840  0.93285913  0.67197717    -0.12100
C1584       C  0.34018024  0.90893021  0.65426554     0.01840
H1585       H  0.36897550  0.85903600  0.60291489     0.14820
H1586       H  0.37582162  0.95387633  0.69113103     0.14820
C1587       C  0.30854852  0.91283837  0.66265169     0.36470
C1588       C  0.43446615  0.89780289  0.63347953     0.36380
N1589       N  0.28325701  0.91615818  0.66922527    -0.43870
N1590       N  0.45945264  0.89350169  0.62896192    -0.43870
C1591       C  0.32602176  0.89121597  0.87124652    -0.00280
C1592       C  0.36004763  0.89595839  0.88347629    -0.12160
C1593       C  0.39230254  0.91621482  0.86242236     0.01950
C1594       C  0.39095771  0.93177129  0.82768282    -0.00370
C1595       C  0.35707435  0.92805293  0.81588003    -0.12100
C1596       C  0.32464468  0.90771246  0.83725146     0.01840
H1597       H  0.36139485  0.88350773  0.90967855     0.14820
H1598       H  0.35573840  0.94019950  0.78949869     0.14820
C1599       C  0.28997911  0.90203673  0.82262841     0.36470
C1600       C  0.42668672  0.92185648  0.87801885     0.36380
N1601       N  0.26207394  0.89719267  0.81087505    -0.43870
N1602       N  0.45428417  0.92664425  0.89060134    -0.43870
C1603       C  0.57528816  0.89076419  0.64125091    -0.00280
C1604       C  0.54134469  0.87386240  0.66082260    -0.12160
C1605       C  0.53049932  0.89448163  0.68327583     0.01950
C1606       C  0.55369208  0.93321301  0.68671366    -0.00370
C1607       C  0.58787662  0.95009246  0.66762868    -0.12100
C1608       C  0.59868858  0.92949956  0.64502675     0.01840
H1609       H  0.52291186  0.84413148  0.65860931     0.14820
H1610       H  0.60597418  0.97991857  0.66946329     0.14820
C1611       C  0.63291976  0.94939231  0.62455692     0.36470
C1612       C  0.49582921  0.87498055  0.70311970     0.36380
N1613       N  0.66034607  0.96574802  0.60814482    -0.43870
N1614       N  0.46802874  0.85928812  0.71901684    -0.43870
C1615       C  0.55959111  0.93162244  0.83014261    -0.00280
C1616       C  0.54225417  0.91801864  0.86473140    -0.12160
C1617       C  0.54961431  0.89459583  0.88635823     0.01950
C1618       C  0.57396711  0.88299814  0.87296783    -0.00370
C1619       C  0.59255707  0.89761051  0.83895562    -0.12100
C1620       C  0.58565842  0.92196743  0.81753703     0.01840
H1621       H  0.52308268  0.92623343  0.87527071     0.14820
H1622       H  0.61133963  0.88891036  0.82844600     0.14820
C1623       C  0.60392441  0.93486646  0.78194884     0.36470
C1624       C  0.53275193  0.88417207  0.92290732     0.36380
N1625       N  0.61861882  0.94505830  0.75338772    -0.43870
N1626       N  0.51936972  0.87641201  0.95227342    -0.43870
C1627       C  0.67745151  0.10827591  0.62657843    -0.00280
C1628       C  0.67811994  0.10877979  0.66566098    -0.12160
C1629       C  0.64531737  0.09026607  0.68661557     0.01950
C1630       C  0.61020769  0.07064311  0.66856322    -0.00370
C1631       C  0.60984059  0.06866400  0.62922074    -0.12100
C1632       C  0.64289016  0.08752535  0.60831976     0.01840
H1633       H  0.70439429  0.12502184  0.67997564     0.14820
H1634       H  0.58363858  0.05312088  0.61466928     0.14820
C1635       C  0.64072614  0.08563422  0.56799539     0.36470
C1636       C  0.64923739  0.09145261  0.72673928     0.36380
N1637       N  0.63905704  0.08398142  0.53566156    -0.43870
N1638       N  0.65319663  0.09250738  0.75882868    -0.43870
C1639       C  0.68525374  0.11168512  0.87807504    -0.00280
C1640       C  0.66073278  0.07701733  0.89390009    -0.12160
C1641       C  0.62370930  0.05643337  0.88146257     0.01950
C1642       C  0.61088096  0.07078153  0.85275351    -0.00370
C1643       C  0.63545627  0.10613235  0.83835114    -0.12100
C1644       C  0.67219819  0.12596312  0.84988000     0.01840
H1645       H  0.67008632  0.06664088  0.91677601     0.14820
H1646       H  0.62635561  0.11800088  0.81666442     0.14820
C1647       C  0.69629172  0.16103243  0.83172652     0.36470
C1648       C  0.59967921  0.02120680  0.89907362     0.36380
N1649       N  0.71564651  0.18904598  0.81718932    -0.43870
N1650       N  0.58049261  0.99320089  0.91369333    -0.43870
C1651       C  0.45542054  0.06709275  0.68158882    -0.00280
C1652       C  0.45572075  0.06400790  0.64246984    -0.12160
C1653       C  0.44363001  0.08315033  0.61941624     0.01950
C1654       C  0.43190138  0.10637082  0.63554834    -0.00370
C1655       C  0.43148742  0.10941958  0.67437900    -0.12100
C1656       C  0.44258977  0.08972680  0.69745916     0.01840
H1657       H  0.46412210  0.04566318  0.62999439     0.14820
H1658       H  0.42313315  0.12787638  0.68670842     0.14820
C1659       C  0.44059388  0.09364214  0.73735256     0.36470
C1660       C  0.44254680  0.07796712  0.57938775     0.36380
N1661       N  0.43818855  0.09683562  0.76919911    -0.43870
N1662       N  0.44138717  0.07362797  0.54731605    -0.43870
C1663       C  0.47643581  0.07287701  0.83987450    -0.00280
C1664       C  0.44547289  0.05669383  0.86399242    -0.12160
C1665       C  0.43177343  0.07807662  0.88094533     0.01950
C1666       C  0.44923947  0.11661316  0.87422687    -0.00370
C1667       C  0.48006254  0.13258400  0.85007475    -0.12100
C1668       C  0.49354966  0.11136339  0.83297237     0.01840
H1669       H  0.43152561  0.02706558  0.86922568     0.14820
H1670       H  0.49416668  0.16221223  0.84478282     0.14820
C1671       C  0.52536529  0.13000746  0.80876639     0.36470
C1672       C  0.40090715  0.06018062  0.90634672     0.36380
N1673       N  0.55078953  0.14495281  0.78928161    -0.43870
N1674       N  0.37618859  0.04584674  0.92677818    -0.43870
loop_ 
_geom_bond_atom_site_label_1 
_geom_bond_atom_site_label_2 
_geom_bond_distance 
_geom_bond_site_symmetry_2 
_ccdc_geom_bond_type 
O1            C9   1.258       .  A
O1          Co21   1.979       .  S
O2           C10   1.276       .  A
O2          Co22   2.000       .  S
O3           C11   1.296       .  A
O3          Co23   2.094   1_565  S
O4           C12   1.276       .  A
O4          Co24   2.039   1_565  S
O5           C11   1.272       .  A
O5          Co22   1.892       .  S
O6           C12   1.262       .  A
O6          Co21   1.958       .  S
O7           C10   1.275       .  A
O7          Co24   2.018   1_565  S
O8            C9   1.259       .  A
O8          Co23   2.010   1_565  S
C9          C757   1.488       .  S
C10         C769   1.500       .  S
C11         C745   1.479       .  S
C12         C778   1.482       .  S
O13          C26   1.270       .  A
O13         Co21   2.040   1_545  S
O14          C27   1.304       .  A
O14         Co22   2.132   1_545  S
O15          C28   1.269       .  A
O15         Co23   1.977       .  S
O16          C29   1.256       .  A
O16         Co24   1.966       .  S
O17          C29   1.270       .  A
O17         Co22   2.046   1_545  S
O18          C28   1.280       .  A
O18         Co21   2.049   1_545  S
O19          C26   1.254       .  A
O19         Co24   1.948       .  S
O20          C27   1.258       .  A
O20         Co23   1.867       .  S
Co21         O25   2.066   1_565  S
Co22         O25   2.036   1_565  S
Co23         O25   2.004       .  S
Co24         O25   2.032       .  S
C26         C805   1.492       .  S
C27         C814   1.478       .  S
C28         C826   1.502       .  S
C29         C793   1.509       .  S
O30          C38   1.272       .  A
O30         Co50   2.040   1_655  S
O31          C39   1.303       .  A
O31         Co51   2.126   1_655  S
O32          C40   1.256       .  A
O32         Co52   1.961       .  S
O33          C41   1.268       .  A
O33         Co53   1.973   1_655  S
O34          C40   1.266       .  A
O34         Co51   2.034   1_655  S
O35          C41   1.280       .  A
O35         Co50   2.037   1_655  S
O36          C39   1.261       .  A
O36         Co53   1.882   1_655  S
O37          C38   1.255       .  A
O37         Co52   1.954       .  S
C38         C658   1.483       .  S
C39         C670   1.475       .  S
C40         C646   1.504       .  S
C41         C682   1.499       .  S
O42          C55   1.265       .  A
O42         Co50   2.003       .  S
O43          C56   1.278       .  A
O43         Co51   1.996       .  S
O44          C57   1.272       .  A
O44         Co52   2.019   1_455  S
O45          C58   1.293       .  A
O45         Co53   2.089       .  S
O46          C58   1.270       .  A
O46         Co51   1.896       .  S
O47          C57   1.266       .  A
O47         Co50   1.970       .  S
O48          C55   1.260       .  A
O48         Co53   2.000       .  S
O49          C56   1.274       .  A
O49         Co52   2.021   1_455  S
Co50         O54   2.057       .  S
Co51         O54   2.024       .  S
Co52         O54   2.030   1_655  S
Co53         O54   2.008       .  S
C55         C706   1.494       .  S
C56         C718   1.502       .  S
C57         C730   1.468       .  S
C58         C697   1.474       .  S
O59          C67   1.300       .  A
O59         Co79   2.105       .  S
O60          C68   1.273       .  A
O60         Co80   2.035       .  S
O61          C69   1.270       .  A
O61         Co81   1.972       .  S
O62          C70   1.256       .  A
O62         Co82   1.965       .  S
O63          C69   1.275       .  A
O63         Co80   2.038       .  S
O64          C70   1.263       .  A
O64         Co79   2.026       .  S
O65          C68   1.255       .  A
O65         Co82   1.943       .  S
O66          C67   1.260       .  A
O66         Co81   1.885       .  S
C67         C562   1.476       .  S
C68         C577   1.473       .  S
C69         C553   1.495       .  S
C70         C589   1.507       .  S
O71          C84   1.278       .  A
O71         Co79   1.995       .  S
O72          C85   1.263       .  A
O72         Co80   1.987       .  S
O73          C86   1.285       .  A
O73         Co81   2.068       .  S
O74          C87   1.269       .  A
O74         Co82   2.018       .  S
O75          C87   1.262       .  A
O75         Co80   1.971       .  S
O76          C86   1.268       .  A
O76         Co79   1.915       .  S
O77          C84   1.275       .  A
O77         Co82   2.018       .  S
O78          C85   1.257       .  A
O78         Co81   1.990       .  S
Co79         O83   2.050       .  S
Co80         O83   2.072       .  S
Co81         O83   2.019       .  S
Co82         O83   2.050       .  S
C84         C610   1.496       .  S
C85         C625   1.477       .  S
C86         C637   1.468       .  S
C87         C598   1.472       .  S
C88         C125   1.489       .  S
C88         C661   1.497       .  S
C88         N106   1.336       .  A
N89         N106   1.311       .  A
N89         N111   1.315       .  A
N89        Co126   2.034       .  S
C90         C128   1.463       .  S
C90         N115   1.341       .  A
C90         H135   1.080       .  S
H91         C132   1.081       .  S
C92          C96   1.439       .  S
C92         N116   1.329       .  A
C92         H121   1.081       .  S
Co93        N111   2.131       .  S
Co93        N101   2.113       .  S
Co93        N133   2.151       .  S
Co93        N109   2.099       .  S
Co93       Cl974   2.450       .  S
N94         C132   1.336       .  A
N94         N938   1.325   1_554  A
N94         Co95   2.080       .  S
Co95         N98   2.145       .  S
Co95        N115   2.098       .  S
Co95        N102   2.122       .  S
Co95       Cl137   2.438       .  S
C96         C649   1.485       .  S
C96         N134   1.365       .  A
N97         N127   1.319       .  A
N97         N941   1.314   1_554  A
N97        Co130   2.046       .  S
N98         N116   1.317       .  A
N98         N134   1.338       .  A
N99         C965   1.352       .  A
N99         N109   1.325       .  A
H100        C125   1.080       .  S
N101        N122   1.329       .  A
N101        N931   1.325       .  A
N102        N120   1.315       .  A
N102        N107   1.334       .  A
C103        C131   1.441       .  S
C103        C574   1.481       .  S
C103        N107   1.363       .  A
N104        C119   1.333       .  A
N104        N934   1.314       .  A
N104       Co126   2.063       .  S
C105        C108   1.483       .  S
C105        N133   1.359       .  A
C105        H139   1.082       .  S
C108        C586   1.487       .  S
C108        N129   1.335       .  A
N109        N952   1.324       .  A
N110        C136   1.333       .  A
N110        N949   1.313       .  A
N110       Co126   2.045       .  S
N111        C125   1.358       .  A
N112        N140   1.318       .  A
N112        N947   1.313   1_554  A
N112       Co130   2.062       .  S
H113        C136   1.080       .  S
H114        C131   1.081       .  S
N115        N946   1.324   1_554  A
N116       Co130   2.034       .  S
N117        N129   1.318       .  A
N117        N133   1.319       .  A
N117       Co126   2.038       .  S
C118        C132   1.451       .  S
C118        C502   1.476       .  S
C118        N959   1.354   1_554  A
C119        C975   1.455       .  S
C119        H123   1.079       .  S
N120        C131   1.324       .  A
N120       Co130   2.032       .  S
N122        C955   1.354       .  A
C124        C541   1.439       .  S
C124        C973   1.448   1_554  S
C124        N140   1.345       .  A
Co126      Cl974   2.443       .  S
N127        C138   1.343   1_554  A
C128        C514   1.488       .  S
C128        N936   1.352   1_554  A
Co130      Cl137   2.453       .  S
C136        C961   1.448       .  S
Cl137      Co930   2.450   1_554  S
Cl137      Co963   2.443   1_554  S
C138        C526   1.457       .  S
C138        C956   1.455       .  S
C141        C178   1.477       .  S
C141        C802   1.476       .  S
C141        N159   1.334       .  A
N142        N159   1.312       .  A
N142        N164   1.316       .  A
N142       Co179   2.027       .  S
C143        C181   1.467       .  S
C143        N168   1.344       .  A
C143        H188   1.080       .  S
H144        C185   1.081       .  S
C145        C149   1.443       .  S
C145        N169   1.336       .  A
C145        H174   1.081       .  S
Co146       N164   2.125       .  S
Co146       N154   2.085       .  S
Co146       N186   2.140       .  S
Co146       N162   2.096       .  S
Co146     Cl1027   2.448       .  S
N147        C185   1.341       .  A
N147        N991   1.323   1_554  A
N147       Co148   2.091       .  S
Co148       N151   2.142       .  S
Co148       N168   2.109       .  S
Co148       N155   2.124       .  S
Co148      Cl190   2.455       .  S
C149        C790   1.490       .  S
C149        N187   1.364       .  A
N150        N180   1.317       .  A
N150        N994   1.313   1_554  A
N150       Co183   2.041       .  S
N151        N169   1.320       .  A
N151        N187   1.337       .  A
N152       C1018   1.351       .  A
N152        N162   1.324       .  A
H153        C178   1.081       .  S
N154        N175   1.324       .  A
N154        N984   1.323       .  A
N155        N173   1.317       .  A
N155        N160   1.333       .  A
C156        C184   1.448       .  S
C156        C673   1.491       .  S
C156        N160   1.363       .  A
N157        C172   1.334       .  A
N157        N987   1.313       .  A
N157       Co179   2.058       .  S
C158        C161   1.483       .  S
C158        N186   1.359       .  A
C158        H192   1.081       .  S
C161        C685   1.484       .  S
C161        N182   1.333       .  A
N162       N1005   1.325       .  A
N163        C189   1.326       .  A
N163       N1002   1.314       .  A
N163       Co179   2.040       .  S
N164        C178   1.356       .  A
N165        N193   1.324       .  A
N165       N1000   1.314   1_554  A
N165       Co183   2.078       .  S
H166        C189   1.078       .  S
H167        C184   1.080       .  S
N168        N999   1.325   1_554  A
N169       Co183   2.063       .  S
N170        N182   1.316       .  A
N170        N186   1.316       .  A
N170       Co179   2.033       .  S
C171        C185   1.459       .  S
C171        C466   1.472       .  S
C171       N1012   1.346   1_554  A
C172       C1028   1.453       .  S
C172        H176   1.080       .  S
N173        C184   1.326       .  A
N173       Co183   2.038       .  S
N175       C1008   1.346       .  A
C177        C529   1.460       .  S
C177       C1026   1.443       .  S
C177        N193   1.353   1_556  A
Co179     Cl1027   2.430       .  S
N180        C191   1.341   1_554  A
C181        C478   1.490       .  S
C181        N989   1.351   1_554  A
Co183      Cl190   2.448       .  S
C189       C1014   1.443       .  S
Cl190      Co983   2.448   1_554  S
Cl190     Co1016   2.430   1_554  S
C191        C490   1.450       .  S
C191       C1009   1.453       .  S
C194        C231   1.473       .  S
C194        C754   1.482       .  S
C194        N212   1.342       .  A
N195        N212   1.319       .  A
N195        N217   1.319       .  A
N195       Co232   2.061       .  S
C196        C234   1.462       .  S
C196        N221   1.342       .  A
C196        H241   1.081       .  S
H197        C238   1.081       .  S
C198        C202   1.450       .  S
C198        N222   1.329       .  A
C198        H227   1.081       .  S
Co199       N217   2.119       .  S
Co199       N207   2.071       .  S
Co199       N239   2.098       .  S
Co199       N215   2.089       .  S
Co199     Cl1080   2.453       .  S
N200        C238   1.342       .  A
N200       N1044   1.322   1_554  A
N200       Co201   2.096       .  S
Co201       N204   2.120       .  S
Co201       N221   2.103       .  S
Co201       N208   2.134       .  S
Co201      Cl243   2.457       .  S
C202        C742   1.491       .  S
C202        N240   1.362       .  A
N203        N233   1.320       .  A
N203       N1047   1.314   1_554  A
N203       Co236   2.057       .  S
N204        N222   1.317       .  A
N204        N240   1.333       .  A
N205       C1071   1.347       .  A
N205        N215   1.324       .  A
H206        C231   1.081       .  S
N207        N228   1.321       .  A
N207       N1037   1.322       .  A
N208        N226   1.316       .  A
N208        N213   1.336       .  A
C209        C237   1.448       .  S
C209        C721   1.497       .  S
C209        N213   1.366       .  A
N210        C225   1.334       .  A
N210       N1040   1.314       .  A
N210       Co232   2.054       .  S
C211        C214   1.465       .  S
C211        N239   1.347       .  A
C211        H245   1.081       .  S
C214        C733   1.463       .  S
C214        N235   1.339       .  A
N215       N1058   1.326       .  A
N216        C242   1.336       .  A
N216       N1055   1.315       .  A
N216       Co232   2.072       .  S
N217        C231   1.352       .  A
N218        N246   1.319       .  A
N218       N1053   1.315   1_554  A
N218       Co236   2.058       .  S
H219        C242   1.080       .  S
H220        C237   1.079       .  S
N221       N1052   1.326   1_554  A
N222       Co236   2.052       .  S
N223        N235   1.317       .  A
N223        N239   1.318       .  A
N223       Co232   2.048       .  S
C224        C238   1.462       .  S
C224        C433   1.474       .  S
C224       N1065   1.346   1_554  A
C225       C1081   1.453       .  S
C225        H229   1.081       .  S
N226        C237   1.329       .  A
N226       Co236   2.046       .  S
N228       C1061   1.346       .  A
C230        C445   1.473       .  S
C230       C1079   1.466       .  S
C230        N246   1.347   1_556  A
Co232     Cl1080   2.441       .  S
N233        C244   1.344   1_554  A
C234        C505   1.477       .  S
C234       N1042   1.347   1_554  A
Co236      Cl243   2.437       .  S
C242       C1067   1.466       .  S
Cl243     Co1036   2.453   1_554  S
Cl243     Co1069   2.441   1_554  S
C244        C454   1.452       .  S
C244       C1062   1.453       .  S
C247        C284   1.458       .  S
C247        C457   1.453       .  S
C247       N1102   1.340   1_554  A
N248        N265   1.314       .  A
N248       N1107   1.315       .  A
N248       Co285   2.043       .  S
C249        C287   1.465       .  S
C249        N274   1.347       .  A
C249        H294   1.081       .  S
H250        C291   1.080       .  S
C251       C1092   1.460       .  S
C251        N275   1.343       .  A
C251        H280   1.081       .  S
Co252       N270   2.066       .  S
Co252       N260   2.059       .  S
Co252       N292   2.071       .  S
Co252       N268   2.063       .  S
Co252      Cl296   2.457       .  S
N253        C291   1.354       .  A
N253        N260   1.319       .  A
N253       Co254   2.137       .  S
Co254       N257   2.080       .  S
Co254       N274   2.100       .  S
Co254       N261   2.106       .  S
Co254      Cl296   2.447       .  S
C255        C469   1.474       .  S
C255       C1088   1.460       .  S
C255        N293   1.346   1_556  A
N256        N263   1.318       .  A
N256        N286   1.331       .  A
N256       Co289   2.104       .  S
N257        N293   1.322       .  A
N257       N1112   1.324   1_554  A
N258        C287   1.342       .  A
N258        N268   1.319       .  A
H259        C284   1.081       .  S
N260        N281   1.321       .  A
N261        N266   1.326       .  A
N261       N1116   1.324   1_554  A
C262        C517   1.483       .  S
C262       C1127   1.460   1_554  S
C262        N266   1.352       .  A
N263        C278   1.335       .  A
N263       Co285   2.071       .  S
C264        C267   1.465       .  S
C264        N292   1.340       .  A
C264        H298   1.077       .  S
N265       C1084   1.340       .  A
C267        C418   1.480       .  S
C267       N1125   1.349   1_554  A
N268        N274   1.319       .  A
N269        C295   1.326       .  A
N269        N271   1.317       .  A
N269       Co285   2.035       .  S
N270        C284   1.340       .  A
N270       N1085   1.315   1_554  A
N271        N299   1.339       .  A
N271       Co289   2.143       .  S
H272        C295   1.082       .  S
H273        C290   1.081       .  S
N275       N1094   1.324       .  A
N275       Co289   2.100       .  S
N276        N288   1.319       .  A
N276       N1129   1.315       .  A
N276       Co285   2.072       .  S
C277        C291   1.484       .  S
C277        C766   1.502       .  S
C277        N281   1.345       .  A
C278        C297   1.454       .  S
C278        H282   1.081       .  S
N279        C290   1.339       .  A
N279       N1098   1.324       .  A
N279       Co289   2.086       .  S
C283        C295   1.441       .  S
C283        C613   1.493       .  S
C283        N299   1.368       .  A
Co285     Cl1133   2.428       .  S
N286        C297   1.355       .  A
C287        C601   1.468       .  S
N288       C1104   1.349       .  A
Co289     Cl1133   2.466       .  S
C290       C1099   1.460       .  S
N292       N1113   1.315   1_554  A
Cl296     Co1122   2.428   1_554  S
Cl296     Co1126   2.466   1_554  S
C297        C781   1.483       .  S
C300        C337   1.480       .  S
C300        C709   1.494       .  S
C300        N318   1.341       .  A
N301        N318   1.319       .  A
N301        N323   1.319       .  A
N301       Co338   2.059       .  S
C302        C340   1.465       .  S
C302        N327   1.346       .  A
C302        H347   1.081       .  S
H303        C344   1.081       .  S
C304        C308   1.449       .  S
C304        N328   1.323       .  A
C304        H333   1.079       .  S
Co305       N323   2.125       .  S
Co305       N313   2.120       .  S
Co305       N345   2.135       .  S
Co305       N321   2.096       .  S
Co305     Cl1186   2.456       .  S
N306        C344   1.340       .  A
N306       N1150   1.324   1_554  A
N306       Co307   2.089       .  S
Co307       N310   2.136       .  S
Co307       N327   2.108       .  S
Co307       N314   2.121       .  S
Co307      Cl349   2.461       .  S
C308        C694   1.497       .  S
C308        N346   1.367       .  A
N309        N339   1.324       .  A
N309       N1153   1.312   1_554  A
N309       Co342   2.084       .  S
N310        N328   1.317       .  A
N310        N346   1.335       .  A
N311       C1177   1.350       .  A
N311        N321   1.325       .  A
H312        C337   1.081       .  S
N313        N334   1.330       .  A
N313       N1143   1.324       .  A
N314        N332   1.319       .  A
N314        N319   1.334       .  A
C315        C343   1.443       .  S
C315        C622   1.478       .  S
C315        N319   1.359       .  A
N316        C331   1.329       .  A
N316       N1146   1.312       .  A
N316       Co338   2.041       .  S
C317        C320   1.486       .  S
C317        N345   1.359       .  A
C317        H351   1.081       .  S
C320        C634   1.486       .  S
C320        N341   1.334       .  A
N321       N1164   1.325       .  A
N322        C348   1.339       .  A
N322       N1161   1.312       .  A
N322       Co338   2.074       .  S
N323        C337   1.352       .  A
N324        N352   1.320       .  A
N324       N1159   1.312   1_554  A
N324       Co342   2.060       .  S
H325        C348   1.075       .  S
H326        C343   1.081       .  S
N327       N1158   1.325   1_554  A
N328       Co342   2.034       .  S
N329        N341   1.309       .  A
N329        N345   1.317       .  A
N329       Co338   2.024       .  S
C330        C344   1.458       .  S
C330        C481   1.493       .  S
C330       N1171   1.357   1_554  A
C331       C1187   1.454       .  S
C331        H335   1.072       .  S
N332        C343   1.330       .  A
N332       Co342   2.052       .  S
N334       C1167   1.357       .  A
C336        C421   1.481       .  S
C336       C1185   1.467   1_554  S
C336        N352   1.348       .  A
Co338     Cl1186   2.442       .  S
N339        C350   1.355   1_554  A
C340        C409   1.486       .  S
C340       N1148   1.350   1_554  A
Co342      Cl349   2.443       .  S
C348       C1173   1.467       .  S
Cl349     Co1142   2.456   1_554  S
Cl349     Co1175   2.442   1_554  S
C350        C442   1.481       .  S
C350       C1168   1.454       .  S
C353        C390   1.462       .  S
C353        C493   1.455       .  S
C353       N1208   1.340   1_554  A
N354        N371   1.312       .  A
N354       N1213   1.314       .  A
N354       Co391   2.044       .  S
C355        C393   1.474       .  S
C355        N380   1.355       .  A
C355        H400   1.081       .  S
H356        C397   1.081       .  S
C357       C1198   1.458       .  S
C357        N381   1.339       .  A
C357        H386   1.081       .  S
Co358       N376   2.067       .  S
Co358       N366   2.049       .  S
Co358       N398   2.057       .  S
Co358       N374   2.061       .  S
Co358      Cl402   2.459       .  S
N359        C397   1.348       .  A
N359        N366   1.319       .  A
N359       Co360   2.105       .  S
Co360       N363   2.092       .  S
Co360       N380   2.122       .  S
Co360       N367   2.090       .  S
Co360      Cl402   2.439       .  S
C361        C430   1.470       .  S
C361       C1194   1.458   1_554  S
C361        N399   1.347       .  A
N362        N369   1.317       .  A
N362        N392   1.340       .  A
N362       Co395   2.149       .  S
N363        N399   1.323       .  A
N363       N1218   1.324   1_554  A
N364        C393   1.341       .  A
N364        N374   1.319       .  A
H365        C390   1.081       .  S
N366        N387   1.319       .  A
N367        N372   1.326       .  A
N367       N1222   1.324   1_554  A
C368        C406   1.487       .  S
C368       C1233   1.465   1_554  S
C368        N372   1.350       .  A
N369        C384   1.331       .  A
N369       Co391   2.049       .  S
C370        C373   1.454       .  S
C370        N398   1.337       .  A
C370        H404   1.081       .  S
N371       C1190   1.340       .  A
C373        C538   1.446       .  S
C373       N1231   1.343   1_554  A
N374        N380   1.319       .  A
N375        C401   1.328       .  A
N375        N377   1.317       .  A
N375       Co391   2.031       .  S
N376        C390   1.342       .  A
N376       N1191   1.314   1_554  A
N377        N405   1.329       .  A
N377       Co395   2.108       .  S
H378        C401   1.081       .  S
H379        C396   1.081       .  S
N381       N1200   1.324       .  A
N381       Co395   2.082       .  S
N382        N394   1.318       .  A
N382       N1235   1.313       .  A
N382       Co391   2.056       .  S
C383        C397   1.464       .  S
C383        C817   1.465       .  S
C383        N387   1.340       .  A
C384        C403   1.442       .  S
C384        H388   1.081       .  S
N385        C396   1.343       .  A
N385       N1204   1.324       .  A
N385       Co395   2.109       .  S
C389        C401   1.438       .  S
C389        C565   1.462       .  S
C389        N405   1.356       .  A
Co391     Cl1239   2.428       .  S
N392        C403   1.370       .  A
C393        C550   1.484       .  S
N394       C1210   1.343       .  A
Co395     Cl1239   2.454       .  S
C396       C1205   1.465       .  S
N398       N1219   1.313   1_554  A
Cl402     Co1228   2.428   1_554  S
Cl402     Co1232   2.454   1_554  S
C403        C829   1.501       .  S
C406        C407   1.406       .  A
C406       C1248   1.413   1_554  A
C407        H412   1.085       .  S
C407        C408   1.407       .  A
C408        C409   1.412       .  A
C408        C415   1.443       .  S
C409       C1247   1.403   1_554  A
C410        H413   1.083       .  S
C410        C411   1.403       .  A
C410       C1246   1.403       .  A
C411       C1243   1.413       .  A
C411        C414   1.443       .  S
C414        N416   1.157       .  T
C415        N417   1.157       .  T
C418        C423   1.411       .  A
C418       C1256   1.405   1_554  A
C419        H424   1.085       .  S
C419        C420   1.395       .  A
C419       C1255   1.405       .  A
C420       C1258   1.411       .  A
C420        C427   1.440       .  S
C421        C422   1.407       .  A
C421       C1257   1.411   1_554  A
C422        H425   1.085       .  S
C422        C423   1.397       .  A
C423        C426   1.442       .  S
C426        N428   1.158       .  T
C427        N429   1.157       .  T
C430        C431   1.403       .  A
C430       C1272   1.408   1_554  A
C431        H436   1.085       .  S
C431        C432   1.400   1_545  A
C432        C433   1.411       .  A
C432        C439   1.443       .  S
C433       C1271   1.404   1_554  A
C434        H437   1.085       .  S
C434        C435   1.397   1_565  A
C434       C1270   1.404       .  A
C435       C1267   1.408       .  A
C435        C438   1.444       .  S
C438        N440   1.157       .  T
C439        N441   1.157       .  T
C442        C443   1.406   1_556  A
C442       C1284   1.420       .  A
C443        H448   1.085       .  S
C443        C444   1.397       .  A
C444        C445   1.410   1_554  A
C444        C451   1.442       .  S
C445       C1283   1.395       .  A
C446        H449   1.082       .  S
C446        C447   1.390       .  A
C446       C1282   1.395       .  A
C447       C1279   1.420       .  A
C447        C450   1.439       .  S
C450        N452   1.156       .  T
C451        N453   1.156       .  T
C454        C455   1.403   1_556  A
C454       C1296   1.408       .  A
C455        H460   1.085       .  S
C455        C456   1.397       .  A
C456        C457   1.405       .  A
C456        C463   1.444       .  S
C457       C1295   1.399   1_554  A
C458        H461   1.085       .  S
C458        C459   1.384       .  A
C458       C1294   1.399       .  A
C459       C1291   1.408       .  A
C459        C462   1.446       .  S
C462        N464   1.157       .  T
C463        N465   1.157       .  T
C466        C471   1.408       .  A
C466       C1304   1.404   1_554  A
C467        H472   1.085       .  S
C467        C468   1.402   1_545  A
C467       C1303   1.404       .  A
C468       C1306   1.411       .  A
C468        C475   1.445       .  S
C469        C470   1.403   1_556  A
C469       C1305   1.411       .  A
C470        H473   1.085       .  S
C470        C471   1.398   1_565  A
C471        C474   1.444       .  S
C474        N476   1.157       .  T
C475        N477   1.158       .  T
C478        C483   1.413       .  A
C478       C1316   1.404   1_554  A
C479        H484   1.085       .  S
C479        C480   1.402   1_655  A
C479       C1315   1.404       .  A
C480       C1318   1.411       .  A
C480        C487   1.436       .  S
C481        C482   1.408       .  A
C481       C1317   1.411   1_554  A
C482        H485   1.084       .  S
C482        C483   1.406   1_455  A
C483        C486   1.443       .  S
C486        N488   1.157       .  T
C487        N489   1.154       .  T
C490        C491   1.402   1_556  A
C490       C1332   1.407       .  A
C491        H496   1.085       .  S
C491        C492   1.395       .  A
C492        C493   1.406       .  A
C492        C499   1.442       .  S
C493       C1331   1.402   1_554  A
C494        H497   1.085       .  S
C494        C495   1.382       .  A
C494       C1330   1.402       .  A
C495       C1327   1.407       .  A
C495        C498   1.446       .  S
C498        N500   1.157       .  T
C499        N501   1.157       .  T
C502        C503   1.403       .  A
C502       C1344   1.410   1_554  A
C503        H508   1.085       .  S
C503        C504   1.399   1_655  A
C504        C505   1.410       .  A
C504        C511   1.444       .  S
C505       C1343   1.405   1_554  A
C506        H509   1.085       .  S
C506        C507   1.404   1_455  A
C506       C1342   1.405       .  A
C507       C1339   1.410       .  A
C507        C510   1.444       .  S
C510        N512   1.157       .  T
C511        N513   1.157       .  T
C514        C519   1.416       .  A
C514       C1352   1.405   1_554  A
C515        H520   1.085       .  S
C515        C516   1.402       .  A
C515       C1351   1.405       .  A
C516       C1354   1.413       .  A
C516        C523   1.444       .  S
C517        C518   1.402       .  A
C517       C1353   1.413   1_554  A
C518        H521   1.085       .  S
C518        C519   1.402       .  A
C519        C522   1.442       .  S
C522        N524   1.157       .  T
C523        N525   1.157       .  T
C526        C531   1.411   1_556  A
C526       C1364   1.395       .  A
C527        H532   1.084       .  S
C527        C528   1.380       .  A
C527       C1363   1.395       .  A
C528       C1366   1.417       .  A
C528        C535   1.446       .  S
C529        C530   1.400   1_556  A
C529       C1365   1.417       .  A
C530        H533   1.085       .  S
C530        C531   1.397       .  A
C531        C534   1.444       .  S
C534        N536   1.157       .  T
C535        N537   1.158       .  T
C538        C539   1.402       .  A
C538       C1380   1.406       .  A
C539        H544   1.081       .  S
C539        C540   1.394       .  A
C540        C541   1.402       .  A
C540        C547   1.445       .  S
C541       C1379   1.396       .  A
C542        H545   1.086       .  S
C542        C543   1.383       .  A
C542       C1378   1.396       .  A
C543       C1375   1.406       .  A
C543        C546   1.446       .  S
C546        N548   1.157       .  T
C547        N549   1.158       .  T
C550        C551   1.394       .  A
C550        C555   1.410       .  A
C551        H556   1.085       .  S
C551        C552   1.407       .  A
C552        C553   1.422       .  A
C552        C559   1.440       .  S
C553        C554   1.399       .  A
C554        H557   1.079       .  S
C554        C555   1.404       .  A
C555        C558   1.437       .  S
C558        N560   1.155       .  T
C559        N561   1.157       .  T
C562        C563   1.401       .  A
C562        C567   1.418       .  A
C563        H568   1.085       .  S
C563        C564   1.396       .  A
C564        C565   1.412       .  A
C564        C571   1.442       .  S
C565        C566   1.391       .  A
C566        H569   1.086       .  S
C566        C567   1.395       .  A
C567        C570   1.437       .  S
C570        N572   1.155       .  T
C571        N573   1.156       .  T
C574        C575   1.412       .  A
C574        C579   1.405       .  A
C575        H580   1.084       .  S
C575        C576   1.396       .  A
C576        C577   1.399       .  A
C576        C583   1.440       .  S
C577        C578   1.411       .  A
C578        H581   1.084       .  S
C578        C579   1.405       .  A
C579        C582   1.443       .  S
C582        N584   1.157       .  T
C583        N585   1.156       .  T
C586        C587   1.407       .  A
C586        C591   1.409       .  A
C587        H592   1.084       .  S
C587        C588   1.412       .  A
C588        C589   1.419       .  A
C588        C595   1.444       .  S
C589        C590   1.412       .  A
C590        H593   1.084       .  S
C590        C591   1.406       .  A
C591        C594   1.444       .  S
C594        N596   1.157       .  T
C595        N597   1.157       .  T
C598        C599   1.403       .  A
C598        C603   1.412       .  A
C599        H604   1.082       .  S
C599        C600   1.404       .  A
C600        C601   1.409       .  A
C600        C607   1.443       .  S
C601        C602   1.399       .  A
C602        H605   1.085       .  S
C602        C603   1.397       .  A
C603        C606   1.444       .  S
C606        N608   1.157       .  T
C607        N609   1.157       .  T
C610        C611   1.415       .  A
C610        C615   1.411       .  A
C611        H616   1.083       .  S
C611        C612   1.413       .  A
C612        C613   1.409       .  A
C612        C619   1.442       .  S
C613        C614   1.408       .  A
C614        H617   1.084       .  S
C614        C615   1.399       .  A
C615        C618   1.442       .  S
C618        N620   1.156       .  T
C619        N621   1.157       .  T
C622        C623   1.403       .  A
C622        C627   1.413       .  A
C623        H628   1.084       .  S
C623        C624   1.408       .  A
C624        C625   1.414       .  A
C624        C631   1.443       .  S
C625        C626   1.400       .  A
C626        H629   1.085       .  S
C626        C627   1.396       .  A
C627        C630   1.445       .  S
C630        N632   1.157       .  T
C631        N633   1.157       .  T
C634        C635   1.412       .  A
C634        C639   1.409       .  A
C635        H640   1.085       .  S
C635        C636   1.393       .  A
C636        C637   1.400       .  A
C636        C643   1.445       .  S
C637        C638   1.408       .  A
C638        H641   1.085       .  S
C638        C639   1.409       .  A
C639        C642   1.439       .  S
C642        N644   1.156       .  T
C643        N645   1.157       .  T
C646        C647   1.408       .  A
C646        C651   1.421       .  A
C647        H652   1.084       .  S
C647        C648   1.400       .  A
C648        C649   1.410       .  A
C648        C655   1.445       .  S
C649        C650   1.405       .  A
C650        H653   1.084       .  S
C650        C651   1.414       .  A
C651        C654   1.443       .  S
C654        N656   1.157   1_655  T
C655        N657   1.157       .  T
C658        C659   1.410       .  A
C658        C663   1.402       .  A
C659        H664   1.080       .  S
C659        C660   1.409       .  A
C660        C661   1.411       .  A
C660        C667   1.442       .  S
C661        C662   1.416       .  A
C662        H665   1.084       .  S
C662        C663   1.397       .  A
C663        C666   1.445       .  S
C666        N668   1.157       .  T
C667        N669   1.158       .  T
C670        C671   1.408       .  A
C670        C675   1.403       .  A
C671        H676   1.084       .  S
C671        C672   1.406       .  A
C672        C673   1.412       .  A
C672        C679   1.443       .  S
C673        C674   1.412       .  A
C674        H677   1.081       .  S
C674        C675   1.396       .  A
C675        C678   1.445       .  S
C678        N680   1.157       .  T
C679        N681   1.157       .  T
C682        C683   1.412       .  A
C682        C687   1.416       .  A
C683        H688   1.084       .  S
C683        C684   1.408       .  A
C684        C685   1.409       .  A
C684        C691   1.443       .  S
C685        C686   1.406       .  A
C686        H689   1.084       .  S
C686        C687   1.407       .  A
C687        C690   1.444       .  S
C690        N692   1.157       .  T
C691        N693   1.157       .  T
C694        C695   1.415       .  A
C694        C699   1.414       .  A
C695        H700   1.079       .  S
C695        C696   1.394       .  A
C696        C697   1.398       .  A
C696        C703   1.443       .  S
C697        C698   1.407       .  A
C698        H701   1.084       .  S
C698        C699   1.409       .  A
C699        C702   1.443       .  S
C702        N704   1.157       .  T
C703        N705   1.156       .  T
C706        C707   1.404       .  A
C706        C711   1.419       .  A
C707        H712   1.085       .  S
C707        C708   1.407       .  A
C708        C709   1.419       .  A
C708        C715   1.444       .  S
C709        C710   1.396       .  A
C710        H713   1.078       .  S
C710        C711   1.402       .  A
C711        C714   1.441       .  S
C714        N716   1.156   1_455  T
C715        N717   1.158       .  T
C718        C719   1.401       .  A
C718        C723   1.426       .  A
C719        H724   1.084       .  S
C719        C720   1.403       .  A
C720        C721   1.421       .  A
C720        C727   1.444       .  S
C721        C722   1.401       .  A
C722        H725   1.085       .  S
C722        C723   1.409       .  A
C723        C726   1.443       .  S
C726        N728   1.157   1_455  T
C727        N729   1.157       .  T
C730        C731   1.401       .  A
C730        C735   1.412       .  A
C731        H736   1.084       .  S
C731        C732   1.402       .  A
C732        C733   1.411       .  A
C732        C739   1.444       .  S
C733        C734   1.398       .  A
C734        H737   1.085       .  S
C734        C735   1.396       .  A
C735        C738   1.444       .  S
C738        N740   1.157       .  T
C739        N741   1.157       .  T
C742        C743   1.411       .  A
C742        C747   1.412       .  A
C743        H748   1.082       .  S
C743        C744   1.397       .  A
C744        C745   1.404       .  A
C744        C751   1.443       .  S
C745        C746   1.408       .  A
C746        H749   1.085       .  S
C746        C747   1.407       .  A
C747        C750   1.443       .  S
C750        N752   1.157       .  T
C751        N753   1.156       .  T
C754        C755   1.403       .  A
C754        C759   1.410       .  A
C755        H760   1.085       .  S
C755        C756   1.399       .  A
C756        C757   1.414       .  A
C756        C763   1.445       .  S
C757        C758   1.409       .  A
C758        H761   1.084       .  S
C758        C759   1.410       .  A
C759        C762   1.443       .  S
C762        N764   1.157       .  T
C763        N765   1.157       .  T
C766        C767   1.413       .  A
C766        C771   1.412       .  A
C767        H772   1.084       .  S
C767        C768   1.407       .  A
C768        C769   1.410       .  A
C768        C775   1.443       .  S
C769        C770   1.412       .  A
C770        H773   1.085       .  S
C770        C771   1.409       .  A
C771        C774   1.443       .  S
C774        N776   1.158       .  T
C775        N777   1.157       .  T
C778        C779   1.401       .  A
C778        C783   1.412       .  A
C779        H784   1.085       .  S
C779        C780   1.394       .  A
C780        C781   1.412       .  A
C780        C787   1.444       .  S
C781        C782   1.407       .  A
C782        H785   1.084       .  S
C782        C783   1.411       .  A
C783        C786   1.442       .  S
C786        N788   1.157       .  T
C787        N789   1.157       .  T
C790        C791   1.397       .  A
C790        C795   1.415       .  A
C791        H796   1.085       .  S
C791        C792   1.406       .  A
C792        C793   1.425       .  A
C792        C799   1.441       .  S
C793        C794   1.408       .  A
C794        H797   1.084       .  S
C794        C795   1.413       .  A
C795        C798   1.443       .  S
C798        N800   1.157       .  T
C799        N801   1.156       .  T
C802        C803   1.404       .  A
C802        C807   1.411       .  A
C803        H808   1.084       .  S
C803        C804   1.412       .  A
C804        C805   1.420       .  A
C804        C811   1.442       .  S
C805        C806   1.404       .  A
C806        H809   1.085       .  S
C806        C807   1.391       .  A
C807        C810   1.447       .  S
C810        N812   1.157       .  T
C811        N813   1.157   1_545  T
C814        C815   1.404       .  A
C814        C819   1.417       .  A
C815        H820   1.085       .  S
C815        C816   1.404       .  A
C816        C817   1.409       .  A
C816        C823   1.444       .  S
C817        C818   1.394       .  A
C818        H821   1.085       .  S
C818        C819   1.396       .  A
C819        C822   1.442       .  S
C822        N824   1.156       .  T
C823        N825   1.157       .  T
C826        C827   1.414       .  A
C826        C831   1.412       .  A
C827        H832   1.085       .  S
C827        C828   1.415       .  A
C828        C829   1.411       .  A
C828        C835   1.443       .  S
C829        C830   1.411       .  A
C830        H833   1.085       .  S
C830        C831   1.405       .  A
C831        C834   1.444       .  S
C834        N836   1.157       .  T
C835        N837   1.157       .  T
O838        C846   1.258       .  A
O838       Co858   1.979       .  S
O839        C847   1.276       .  A
O839       Co859   2.000       .  S
O840        C848   1.296       .  A
O840       Co860   2.094   1_565  S
O841        C849   1.276       .  A
O841       Co861   2.039   1_565  S
O842        C848   1.272       .  A
O842       Co859   1.892       .  S
O843        C849   1.262       .  A
O843       Co858   1.958       .  S
O844        C847   1.275       .  A
O844       Co861   2.018   1_565  S
O845        C846   1.259       .  A
O845       Co860   2.010   1_565  S
C846       C1594   1.488       .  S
C847       C1606   1.500       .  S
C848       C1582   1.479       .  S
C849       C1615   1.482       .  S
O850        C863   1.270       .  A
O850       Co858   2.040   1_545  S
O851        C864   1.304       .  A
O851       Co859   2.132   1_545  S
O852        C865   1.269       .  A
O852       Co860   1.977       .  S
O853        C866   1.256       .  A
O853       Co861   1.966       .  S
O854        C866   1.270       .  A
O854       Co859   2.046   1_545  S
O855        C865   1.280       .  A
O855       Co858   2.049   1_545  S
O856        C863   1.254       .  A
O856       Co861   1.948       .  S
O857        C864   1.258       .  A
O857       Co860   1.867       .  S
Co858       O862   2.066   1_565  S
Co859       O862   2.036   1_565  S
Co860       O862   2.004       .  S
Co861       O862   2.032       .  S
C863       C1642   1.492       .  S
C864       C1651   1.478       .  S
C865       C1663   1.502       .  S
C866       C1630   1.509       .  S
O867        C875   1.272       .  A
O867       Co887   2.040   1_655  S
O868        C876   1.303       .  A
O868       Co888   2.126   1_655  S
O869        C877   1.256       .  A
O869       Co889   1.961       .  S
O870        C878   1.268       .  A
O870       Co890   1.973   1_655  S
O871        C877   1.266       .  A
O871       Co888   2.034   1_655  S
O872        C878   1.280       .  A
O872       Co887   2.037   1_655  S
O873        C876   1.261       .  A
O873       Co890   1.882   1_655  S
O874        C875   1.255       .  A
O874       Co889   1.954       .  S
C875       C1495   1.483       .  S
C876       C1507   1.475       .  S
C877       C1483   1.504       .  S
C878       C1519   1.499       .  S
O879        C892   1.265       .  A
O879       Co887   2.003       .  S
O880        C893   1.278       .  A
O880       Co888   1.996       .  S
O881        C894   1.272       .  A
O881       Co889   2.019   1_455  S
O882        C895   1.293       .  A
O882       Co890   2.089       .  S
O883        C895   1.270       .  A
O883       Co888   1.896       .  S
O884        C894   1.266       .  A
O884       Co887   1.970       .  S
O885        C892   1.260       .  A
O885       Co890   2.000       .  S
O886        C893   1.274       .  A
O886       Co889   2.021   1_455  S
Co887       O891   2.057       .  S
Co888       O891   2.024       .  S
Co889       O891   2.030   1_655  S
Co890       O891   2.008       .  S
C892       C1543   1.494       .  S
C893       C1555   1.502       .  S
C894       C1567   1.468       .  S
C895       C1534   1.474       .  S
O896        C904   1.300       .  A
O896       Co916   2.105       .  S
O897        C905   1.273       .  A
O897       Co917   2.035       .  S
O898        C906   1.270       .  A
O898       Co918   1.972       .  S
O899        C907   1.256       .  A
O899       Co919   1.965       .  S
O900        C906   1.275       .  A
O900       Co917   2.038       .  S
O901        C907   1.263       .  A
O901       Co916   2.026       .  S
O902        C905   1.255       .  A
O902       Co919   1.943       .  S
O903        C904   1.260       .  A
O903       Co918   1.885       .  S
C904       C1399   1.476       .  S
C905       C1414   1.473       .  S
C906       C1390   1.495       .  S
C907       C1426   1.507       .  S
O908        C921   1.278       .  A
O908       Co916   1.995       .  S
O909        C922   1.263       .  A
O909       Co917   1.987       .  S
O910        C923   1.285       .  A
O910       Co918   2.068       .  S
O911        C924   1.269       .  A
O911       Co919   2.018       .  S
O912        C924   1.262       .  A
O912       Co917   1.971       .  S
O913        C923   1.268       .  A
O913       Co916   1.915       .  S
O914        C921   1.275       .  A
O914       Co919   2.018       .  S
O915        C922   1.257       .  A
O915       Co918   1.990       .  S
Co916       O920   2.050       .  S
Co917       O920   2.072       .  S
Co918       O920   2.019       .  S
Co919       O920   2.050       .  S
C921       C1447   1.496       .  S
C922       C1462   1.477       .  S
C923       C1474   1.468       .  S
C924       C1435   1.472       .  S
C925        C962   1.489       .  S
C925       C1498   1.497       .  S
C925        N943   1.336       .  A
N926        N943   1.311       .  A
N926        N948   1.315       .  A
N926       Co963   2.034       .  S
C927        C965   1.463       .  S
C927        N952   1.341       .  A
C927        H972   1.080       .  S
H928        C969   1.081       .  S
C929        C933   1.439       .  S
C929        N953   1.329       .  A
C929        H958   1.081       .  S
Co930       N948   2.131       .  S
Co930       N938   2.113       .  S
Co930       N970   2.151       .  S
Co930       N946   2.099       .  S
N931        C969   1.336       .  A
N931       Co932   2.080       .  S
Co932       N935   2.145       .  S
Co932       N952   2.098       .  S
Co932       N939   2.122       .  S
Co932      Cl974   2.438       .  S
C933       C1486   1.485       .  S
C933        N971   1.365       .  A
N934        N964   1.319       .  A
N934       Co967   2.046       .  S
N935        N953   1.317       .  A
N935        N971   1.338       .  A
N936        N946   1.325       .  A
H937        C962   1.080       .  S
N938        N959   1.329       .  A
N939        N957   1.315       .  A
N939        N944   1.334       .  A
C940        C968   1.441       .  S
C940       C1411   1.481       .  S
C940        N944   1.363       .  A
N941        C956   1.333       .  A
N941       Co963   2.063       .  S
C942        C945   1.483       .  S
C942        N970   1.359       .  A
C942        H976   1.082       .  S
C945       C1423   1.487       .  S
C945        N966   1.335       .  A
N947        C973   1.333       .  A
N947       Co963   2.045       .  S
N948        C962   1.358       .  A
N949        N977   1.318       .  A
N949       Co967   2.062       .  S
H950        C973   1.080       .  S
H951        C968   1.081       .  S
N953       Co967   2.034       .  S
N954        N966   1.318       .  A
N954        N970   1.319       .  A
N954       Co963   2.038       .  S
C955        C969   1.451       .  S
C955       C1339   1.476       .  S
C956        H960   1.079       .  S
N957        C968   1.324       .  A
N957       Co967   2.032       .  S
C961       C1378   1.439       .  S
C961        N977   1.345       .  A
N964        C975   1.343       .  A
C965       C1351   1.488       .  S
Co967      Cl974   2.453       .  S
C975       C1363   1.457       .  S
C978       C1015   1.477       .  S
C978       C1639   1.476       .  S
C978        N996   1.334       .  A
N979        N996   1.312       .  A
N979       N1001   1.316       .  A
N979      Co1016   2.027       .  S
C980       C1018   1.467       .  S
C980       N1005   1.344       .  A
C980       H1025   1.080       .  S
H981       C1022   1.081       .  S
C982        C986   1.443       .  S
C982       N1006   1.336       .  A
C982       H1011   1.081       .  S
Co983      N1001   2.125       .  S
Co983       N991   2.085       .  S
Co983      N1023   2.140       .  S
Co983       N999   2.096       .  S
N984       C1022   1.341       .  A
N984       Co985   2.091       .  S
Co985       N988   2.142       .  S
Co985      N1005   2.109       .  S
Co985       N992   2.124       .  S
Co985     Cl1027   2.455       .  S
C986       C1627   1.490       .  S
C986       N1024   1.364       .  A
N987       N1017   1.317       .  A
N987      Co1020   2.041       .  S
N988       N1006   1.320       .  A
N988       N1024   1.337       .  A
N989        N999   1.324       .  A
H990       C1015   1.081       .  S
N991       N1012   1.324       .  A
N992       N1010   1.317       .  A
N992        N997   1.333       .  A
C993       C1021   1.448       .  S
C993       C1510   1.491       .  S
C993        N997   1.363       .  A
N994       C1009   1.334       .  A
N994      Co1016   2.058       .  S
C995        C998   1.483       .  S
C995       N1023   1.359       .  A
C995       H1029   1.081       .  S
C998       C1522   1.484       .  S
C998       N1019   1.333       .  A
N1000      C1026   1.326       .  A
N1000     Co1016   2.040       .  S
N1001      C1015   1.356       .  A
N1002      N1030   1.324       .  A
N1002     Co1020   2.078       .  S
H1003      C1026   1.078       .  S
H1004      C1021   1.080       .  S
N1006     Co1020   2.063       .  S
N1007      N1019   1.316       .  A
N1007      N1023   1.316       .  A
N1007     Co1016   2.033       .  S
C1008      C1022   1.459       .  S
C1008      C1303   1.472       .  S
C1009      H1013   1.080       .  S
N1010      C1021   1.326       .  A
N1010     Co1020   2.038       .  S
C1014      C1366   1.460       .  S
C1014      N1030   1.353       .  A
N1017      C1028   1.341       .  A
C1018      C1315   1.490       .  S
Co1020    Cl1027   2.448       .  S
C1028      C1327   1.450       .  S
C1031      C1068   1.473       .  S
C1031      C1591   1.482       .  S
C1031      N1049   1.342       .  A
N1032      N1049   1.319       .  A
N1032      N1054   1.319       .  A
N1032     Co1069   2.061       .  S
C1033      C1071   1.462       .  S
C1033      N1058   1.342       .  A
C1033      H1078   1.081       .  S
H1034      C1075   1.081       .  S
C1035      C1039   1.450       .  S
C1035      N1059   1.329       .  A
C1035      H1064   1.081       .  S
Co1036     N1054   2.119       .  S
Co1036     N1044   2.071       .  S
Co1036     N1076   2.098       .  S
Co1036     N1052   2.089       .  S
N1037      C1075   1.342       .  A
N1037     Co1038   2.096       .  S
Co1038     N1041   2.120       .  S
Co1038     N1058   2.103       .  S
Co1038     N1045   2.134       .  S
Co1038    Cl1080   2.457       .  S
C1039      C1579   1.491       .  S
C1039      N1077   1.362       .  A
N1040      N1070   1.320       .  A
N1040     Co1073   2.057       .  S
N1041      N1059   1.317       .  A
N1041      N1077   1.333       .  A
N1042      N1052   1.324       .  A
H1043      C1068   1.081       .  S
N1044      N1065   1.321       .  A
N1045      N1063   1.316       .  A
N1045      N1050   1.336       .  A
C1046      C1074   1.448       .  S
C1046      C1558   1.497       .  S
C1046      N1050   1.366       .  A
N1047      C1062   1.334       .  A
N1047     Co1069   2.054       .  S
C1048      C1051   1.465       .  S
C1048      N1076   1.347       .  A
C1048      H1082   1.081       .  S
C1051      C1570   1.463       .  S
C1051      N1072   1.339       .  A
N1053      C1079   1.336       .  A
N1053     Co1069   2.072       .  S
N1054      C1068   1.352       .  A
N1055      N1083   1.319       .  A
N1055     Co1073   2.058       .  S
H1056      C1079   1.080       .  S
H1057      C1074   1.079       .  S
N1059     Co1073   2.052       .  S
N1060      N1072   1.317       .  A
N1060      N1076   1.318       .  A
N1060     Co1069   2.048       .  S
C1061      C1075   1.462       .  S
C1061      C1270   1.474       .  S
C1062      H1066   1.081       .  S
N1063      C1074   1.329       .  A
N1063     Co1073   2.046       .  S
C1067      C1282   1.473       .  S
C1067      N1083   1.347       .  A
N1070      C1081   1.344       .  A
C1071      C1342   1.477       .  S
Co1073    Cl1080   2.437       .  S
C1081      C1291   1.452       .  S
C1084      C1121   1.458       .  S
C1084      C1294   1.453       .  S
N1085      N1102   1.314       .  A
N1085     Co1122   2.043       .  S
C1086      C1124   1.465       .  S
C1086      N1111   1.347       .  A
C1086      H1131   1.081       .  S
H1087      C1128   1.080       .  S
C1088      N1112   1.343       .  A
C1088      H1117   1.081       .  S
Co1089     N1107   2.066       .  S
Co1089     N1097   2.059       .  S
Co1089     N1129   2.071       .  S
Co1089     N1105   2.063       .  S
Co1089    Cl1133   2.457       .  S
N1090      C1128   1.354       .  A
N1090      N1097   1.319       .  A
N1090     Co1091   2.137       .  S
Co1091     N1094   2.080       .  S
Co1091     N1111   2.100       .  S
Co1091     N1098   2.106       .  S
Co1091    Cl1133   2.447       .  S
C1092      C1306   1.474       .  S
C1092      N1130   1.346       .  A
N1093      N1100   1.318       .  A
N1093      N1123   1.331       .  A
N1093     Co1126   2.104       .  S
N1094      N1130   1.322       .  A
N1095      C1124   1.342       .  A
N1095      N1105   1.319       .  A
H1096      C1121   1.081       .  S
N1097      N1118   1.321       .  A
N1098      N1103   1.326       .  A
C1099      C1354   1.483       .  S
C1099      N1103   1.352       .  A
N1100      C1115   1.335       .  A
N1100     Co1122   2.071       .  S
C1101      C1104   1.465       .  S
C1101      N1129   1.340       .  A
C1101      H1135   1.077       .  S
C1104      C1255   1.480       .  S
N1105      N1111   1.319       .  A
N1106      C1132   1.326       .  A
N1106      N1108   1.317       .  A
N1106     Co1122   2.035       .  S
N1107      C1121   1.340       .  A
N1108      N1136   1.339       .  A
N1108     Co1126   2.143       .  S
H1109      C1132   1.082       .  S
H1110      C1127   1.081       .  S
N1112     Co1126   2.100       .  S
N1113      N1125   1.319       .  A
N1113     Co1122   2.072       .  S
C1114      C1128   1.484       .  S
C1114      C1603   1.502       .  S
C1114      N1118   1.345       .  A
C1115      C1134   1.454       .  S
C1115      H1119   1.081       .  S
N1116      C1127   1.339       .  A
N1116     Co1126   2.086       .  S
C1120      C1132   1.441       .  S
C1120      C1450   1.493       .  S
C1120      N1136   1.368       .  A
N1123      C1134   1.355       .  A
C1124      C1438   1.468       .  S
C1134      C1618   1.483       .  S
C1137      C1174   1.480       .  S
C1137      C1546   1.494       .  S
C1137      N1155   1.341       .  A
N1138      N1155   1.319       .  A
N1138      N1160   1.319       .  A
N1138     Co1175   2.059       .  S
C1139      C1177   1.465       .  S
C1139      N1164   1.346       .  A
C1139      H1184   1.081       .  S
H1140      C1181   1.081       .  S
C1141      C1145   1.449       .  S
C1141      N1165   1.323       .  A
C1141      H1170   1.079       .  S
Co1142     N1160   2.125       .  S
Co1142     N1150   2.120       .  S
Co1142     N1182   2.135       .  S
Co1142     N1158   2.096       .  S
N1143      C1181   1.340       .  A
N1143     Co1144   2.089       .  S
Co1144     N1147   2.136       .  S
Co1144     N1164   2.108       .  S
Co1144     N1151   2.121       .  S
Co1144    Cl1186   2.461       .  S
C1145      C1531   1.497       .  S
C1145      N1183   1.367       .  A
N1146      N1176   1.324       .  A
N1146     Co1179   2.084       .  S
N1147      N1165   1.317       .  A
N1147      N1183   1.335       .  A
N1148      N1158   1.325       .  A
H1149      C1174   1.081       .  S
N1150      N1171   1.330       .  A
N1151      N1169   1.319       .  A
N1151      N1156   1.334       .  A
C1152      C1180   1.443       .  S
C1152      C1459   1.478       .  S
C1152      N1156   1.359       .  A
N1153      C1168   1.329       .  A
N1153     Co1175   2.041       .  S
C1154      C1157   1.486       .  S
C1154      N1182   1.359       .  A
C1154      H1188   1.081       .  S
C1157      C1471   1.486       .  S
C1157      N1178   1.334       .  A
N1159      C1185   1.339       .  A
N1159     Co1175   2.074       .  S
N1160      C1174   1.352       .  A
N1161      N1189   1.320       .  A
N1161     Co1179   2.060       .  S
H1162      C1185   1.075       .  S
H1163      C1180   1.081       .  S
N1165     Co1179   2.034       .  S
N1166      N1178   1.309       .  A
N1166      N1182   1.317       .  A
N1166     Co1175   2.024       .  S
C1167      C1181   1.458       .  S
C1167      C1318   1.493       .  S
C1168      H1172   1.072       .  S
N1169      C1180   1.330       .  A
N1169     Co1179   2.052       .  S
C1173      C1258   1.481       .  S
C1173      N1189   1.348       .  A
N1176      C1187   1.355       .  A
C1177      C1246   1.486       .  S
Co1179    Cl1186   2.443       .  S
C1187      C1279   1.481       .  S
C1190      C1227   1.462       .  S
C1190      C1330   1.455       .  S
N1191      N1208   1.312       .  A
N1191     Co1228   2.044       .  S
C1192      C1230   1.474       .  S
C1192      N1217   1.355       .  A
C1192      H1237   1.081       .  S
H1193      C1234   1.081       .  S
C1194      N1218   1.339       .  A
C1194      H1223   1.081       .  S
Co1195     N1213   2.067       .  S
Co1195     N1203   2.049       .  S
Co1195     N1235   2.057       .  S
Co1195     N1211   2.061       .  S
Co1195    Cl1239   2.459       .  S
N1196      C1234   1.348       .  A
N1196      N1203   1.319       .  A
N1196     Co1197   2.105       .  S
Co1197     N1200   2.092       .  S
Co1197     N1217   2.122       .  S
Co1197     N1204   2.090       .  S
Co1197    Cl1239   2.439       .  S
C1198      C1267   1.470       .  S
C1198      N1236   1.347       .  A
N1199      N1206   1.317       .  A
N1199      N1229   1.340       .  A
N1199     Co1232   2.149       .  S
N1200      N1236   1.323       .  A
N1201      C1230   1.341       .  A
N1201      N1211   1.319       .  A
H1202      C1227   1.081       .  S
N1203      N1224   1.319       .  A
N1204      N1209   1.326       .  A
C1205      C1243   1.487       .  S
C1205      N1209   1.350       .  A
N1206      C1221   1.331       .  A
N1206     Co1228   2.049       .  S
C1207      C1210   1.454       .  S
C1207      N1235   1.337       .  A
C1207      H1241   1.081       .  S
C1210      C1375   1.446       .  S
N1211      N1217   1.319       .  A
N1212      C1238   1.328       .  A
N1212      N1214   1.317       .  A
N1212     Co1228   2.031       .  S
N1213      C1227   1.342       .  A
N1214      N1242   1.329       .  A
N1214     Co1232   2.108       .  S
H1215      C1238   1.081       .  S
H1216      C1233   1.081       .  S
N1218     Co1232   2.082       .  S
N1219      N1231   1.318       .  A
N1219     Co1228   2.056       .  S
C1220      C1234   1.464       .  S
C1220      C1654   1.465       .  S
C1220      N1224   1.340       .  A
C1221      C1240   1.442       .  S
C1221      H1225   1.081       .  S
N1222      C1233   1.343       .  A
N1222     Co1232   2.109       .  S
C1226      C1238   1.438       .  S
C1226      C1402   1.462       .  S
C1226      N1242   1.356       .  A
N1229      C1240   1.370       .  A
C1230      C1387   1.484       .  S
C1240      C1666   1.501       .  S
C1243      C1244   1.406       .  A
C1244      H1249   1.085       .  S
C1244      C1245   1.407       .  A
C1245      C1246   1.412       .  A
C1245      C1252   1.443       .  S
C1247      H1250   1.083       .  S
C1247      C1248   1.403       .  A
C1248      C1251   1.443       .  S
C1251      N1253   1.157       .  T
C1252      N1254   1.157       .  T
C1255      C1260   1.411       .  A
C1256      H1261   1.085       .  S
C1256      C1257   1.395       .  A
C1257      C1264   1.440       .  S
C1258      C1259   1.407       .  A
C1259      H1262   1.085       .  S
C1259      C1260   1.397       .  A
C1260      C1263   1.442       .  S
C1263      N1265   1.158       .  T
C1264      N1266   1.157       .  T
C1267      C1268   1.403       .  A
C1268      H1273   1.085       .  S
C1268      C1269   1.400   1_545  A
C1269      C1270   1.411       .  A
C1269      C1276   1.443       .  S
C1271      H1274   1.085       .  S
C1271      C1272   1.397   1_565  A
C1272      C1275   1.444       .  S
C1275      N1277   1.157       .  T
C1276      N1278   1.157       .  T
C1279      C1280   1.406       .  A
C1280      H1285   1.085       .  S
C1280      C1281   1.397       .  A
C1281      C1282   1.410       .  A
C1281      C1288   1.442       .  S
C1283      H1286   1.082       .  S
C1283      C1284   1.390       .  A
C1284      C1287   1.439       .  S
C1287      N1289   1.156       .  T
C1288      N1290   1.156       .  T
C1291      C1292   1.403       .  A
C1292      H1297   1.085       .  S
C1292      C1293   1.397       .  A
C1293      C1294   1.405       .  A
C1293      C1300   1.444       .  S
C1295      H1298   1.085       .  S
C1295      C1296   1.384       .  A
C1296      C1299   1.446       .  S
C1299      N1301   1.157       .  T
C1300      N1302   1.157       .  T
C1303      C1308   1.408       .  A
C1304      H1309   1.085       .  S
C1304      C1305   1.402   1_545  A
C1305      C1312   1.445       .  S
C1306      C1307   1.403       .  A
C1307      H1310   1.085       .  S
C1307      C1308   1.398   1_565  A
C1308      C1311   1.444       .  S
C1311      N1313   1.157       .  T
C1312      N1314   1.158       .  T
C1315      C1320   1.413       .  A
C1316      H1321   1.085       .  S
C1316      C1317   1.402   1_655  A
C1317      C1324   1.436       .  S
C1318      C1319   1.408       .  A
C1319      H1322   1.084       .  S
C1319      C1320   1.406   1_455  A
C1320      C1323   1.443       .  S
C1323      N1325   1.157       .  T
C1324      N1326   1.154       .  T
C1327      C1328   1.402       .  A
C1328      H1333   1.085       .  S
C1328      C1329   1.395       .  A
C1329      C1330   1.406       .  A
C1329      C1336   1.442       .  S
C1331      H1334   1.085       .  S
C1331      C1332   1.382       .  A
C1332      C1335   1.446       .  S
C1335      N1337   1.157       .  T
C1336      N1338   1.157       .  T
C1339      C1340   1.403       .  A
C1340      H1345   1.085       .  S
C1340      C1341   1.399   1_655  A
C1341      C1342   1.410       .  A
C1341      C1348   1.444       .  S
C1343      H1346   1.085       .  S
C1343      C1344   1.404   1_455  A
C1344      C1347   1.444       .  S
C1347      N1349   1.157       .  T
C1348      N1350   1.157       .  T
C1351      C1356   1.416       .  A
C1352      H1357   1.085       .  S
C1352      C1353   1.402       .  A
C1353      C1360   1.444       .  S
C1354      C1355   1.402       .  A
C1355      H1358   1.085       .  S
C1355      C1356   1.402       .  A
C1356      C1359   1.442       .  S
C1359      N1361   1.157       .  T
C1360      N1362   1.157       .  T
C1363      C1368   1.411       .  A
C1364      H1369   1.084       .  S
C1364      C1365   1.380       .  A
C1365      C1372   1.446       .  S
C1366      C1367   1.400       .  A
C1367      H1370   1.085       .  S
C1367      C1368   1.397       .  A
C1368      C1371   1.444       .  S
C1371      N1373   1.157       .  T
C1372      N1374   1.158       .  T
C1375      C1376   1.402       .  A
C1376      H1381   1.081       .  S
C1376      C1377   1.394       .  A
C1377      C1378   1.402       .  A
C1377      C1384   1.445       .  S
C1379      H1382   1.086   1_554  S
C1379      C1380   1.383       .  A
C1380      C1383   1.446   1_554  S
C1383      N1385   1.157       .  T
C1384      N1386   1.158       .  T
C1387      C1388   1.394       .  A
C1387      C1392   1.410       .  A
C1388      H1393   1.085       .  S
C1388      C1389   1.407       .  A
C1389      C1390   1.422       .  A
C1389      C1396   1.440       .  S
C1390      C1391   1.399       .  A
C1391      H1394   1.079       .  S
C1391      C1392   1.404       .  A
C1392      C1395   1.437       .  S
C1395      N1397   1.155       .  T
C1396      N1398   1.157       .  T
C1399      C1400   1.401       .  A
C1399      C1404   1.418       .  A
C1400      H1405   1.085       .  S
C1400      C1401   1.396       .  A
C1401      C1402   1.412       .  A
C1401      C1408   1.442       .  S
C1402      C1403   1.391       .  A
C1403      H1406   1.086       .  S
C1403      C1404   1.395       .  A
C1404      C1407   1.437       .  S
C1407      N1409   1.155       .  T
C1408      N1410   1.156       .  T
C1411      C1412   1.412       .  A
C1411      C1416   1.405       .  A
C1412      H1417   1.084       .  S
C1412      C1413   1.396       .  A
C1413      C1414   1.399       .  A
C1413      C1420   1.440       .  S
C1414      C1415   1.411       .  A
C1415      H1418   1.084       .  S
C1415      C1416   1.405       .  A
C1416      C1419   1.443       .  S
C1419      N1421   1.157       .  T
C1420      N1422   1.156       .  T
C1423      C1424   1.407       .  A
C1423      C1428   1.409       .  A
C1424      H1429   1.084       .  S
C1424      C1425   1.412       .  A
C1425      C1426   1.419       .  A
C1425      C1432   1.444       .  S
C1426      C1427   1.412       .  A
C1427      H1430   1.084       .  S
C1427      C1428   1.406       .  A
C1428      C1431   1.444       .  S
C1431      N1433   1.157       .  T
C1432      N1434   1.157       .  T
C1435      C1436   1.403       .  A
C1435      C1440   1.412       .  A
C1436      H1441   1.082       .  S
C1436      C1437   1.404       .  A
C1437      C1438   1.409       .  A
C1437      C1444   1.443       .  S
C1438      C1439   1.399       .  A
C1439      H1442   1.085       .  S
C1439      C1440   1.397       .  A
C1440      C1443   1.444       .  S
C1443      N1445   1.157       .  T
C1444      N1446   1.157       .  T
C1447      C1448   1.415       .  A
C1447      C1452   1.411       .  A
C1448      H1453   1.083       .  S
C1448      C1449   1.413       .  A
C1449      C1450   1.409       .  A
C1449      C1456   1.442       .  S
C1450      C1451   1.408       .  A
C1451      H1454   1.084       .  S
C1451      C1452   1.399       .  A
C1452      C1455   1.442       .  S
C1455      N1457   1.156       .  T
C1456      N1458   1.157       .  T
C1459      C1460   1.403       .  A
C1459      C1464   1.413       .  A
C1460      H1465   1.084       .  S
C1460      C1461   1.408       .  A
C1461      C1462   1.414       .  A
C1461      C1468   1.443       .  S
C1462      C1463   1.400       .  A
C1463      H1466   1.085       .  S
C1463      C1464   1.396       .  A
C1464      C1467   1.445       .  S
C1467      N1469   1.157       .  T
C1468      N1470   1.157       .  T
C1471      C1472   1.412       .  A
C1471      C1476   1.409       .  A
C1472      H1477   1.085       .  S
C1472      C1473   1.393       .  A
C1473      C1474   1.400       .  A
C1473      C1480   1.445       .  S
C1474      C1475   1.408       .  A
C1475      H1478   1.085       .  S
C1475      C1476   1.409       .  A
C1476      C1479   1.439       .  S
C1479      N1481   1.156       .  T
C1480      N1482   1.157       .  T
C1483      C1484   1.408       .  A
C1483      C1488   1.421       .  A
C1484      H1489   1.084       .  S
C1484      C1485   1.400       .  A
C1485      C1486   1.410       .  A
C1485      C1492   1.445       .  S
C1486      C1487   1.405       .  A
C1487      H1490   1.084       .  S
C1487      C1488   1.414       .  A
C1488      C1491   1.443       .  S
C1491      N1493   1.157   1_655  T
C1492      N1494   1.157       .  T
C1495      C1496   1.410       .  A
C1495      C1500   1.402       .  A
C1496      H1501   1.080       .  S
C1496      C1497   1.409       .  A
C1497      C1498   1.411       .  A
C1497      C1504   1.442       .  S
C1498      C1499   1.416       .  A
C1499      H1502   1.084       .  S
C1499      C1500   1.397       .  A
C1500      C1503   1.445       .  S
C1503      N1505   1.157       .  T
C1504      N1506   1.158       .  T
C1507      C1508   1.408       .  A
C1507      C1512   1.403       .  A
C1508      H1513   1.084       .  S
C1508      C1509   1.406       .  A
C1509      C1510   1.412       .  A
C1509      C1516   1.443       .  S
C1510      C1511   1.412       .  A
C1511      H1514   1.081       .  S
C1511      C1512   1.396       .  A
C1512      C1515   1.445       .  S
C1515      N1517   1.157       .  T
C1516      N1518   1.157       .  T
C1519      C1520   1.412       .  A
C1519      C1524   1.416       .  A
C1520      H1525   1.084       .  S
C1520      C1521   1.408       .  A
C1521      C1522   1.409       .  A
C1521      C1528   1.443       .  S
C1522      C1523   1.406       .  A
C1523      H1526   1.084       .  S
C1523      C1524   1.407       .  A
C1524      C1527   1.444       .  S
C1527      N1529   1.157       .  T
C1528      N1530   1.157       .  T
C1531      C1532   1.415       .  A
C1531      C1536   1.414       .  A
C1532      H1537   1.079       .  S
C1532      C1533   1.394       .  A
C1533      C1534   1.398       .  A
C1533      C1540   1.443       .  S
C1534      C1535   1.407       .  A
C1535      H1538   1.084       .  S
C1535      C1536   1.409       .  A
C1536      C1539   1.443       .  S
C1539      N1541   1.157       .  T
C1540      N1542   1.156       .  T
C1543      C1544   1.404       .  A
C1543      C1548   1.419       .  A
C1544      H1549   1.085       .  S
C1544      C1545   1.407       .  A
C1545      C1546   1.419       .  A
C1545      C1552   1.444       .  S
C1546      C1547   1.396       .  A
C1547      H1550   1.078       .  S
C1547      C1548   1.402       .  A
C1548      C1551   1.441       .  S
C1551      N1553   1.156   1_455  T
C1552      N1554   1.158       .  T
C1555      C1556   1.401       .  A
C1555      C1560   1.426       .  A
C1556      H1561   1.084       .  S
C1556      C1557   1.403       .  A
C1557      C1558   1.421       .  A
C1557      C1564   1.444       .  S
C1558      C1559   1.401       .  A
C1559      H1562   1.085       .  S
C1559      C1560   1.409       .  A
C1560      C1563   1.443       .  S
C1563      N1565   1.157   1_455  T
C1564      N1566   1.157       .  T
C1567      C1568   1.401       .  A
C1567      C1572   1.412       .  A
C1568      H1573   1.084       .  S
C1568      C1569   1.402       .  A
C1569      C1570   1.411       .  A
C1569      C1576   1.444       .  S
C1570      C1571   1.398       .  A
C1571      H1574   1.085       .  S
C1571      C1572   1.396       .  A
C1572      C1575   1.444       .  S
C1575      N1577   1.157       .  T
C1576      N1578   1.157       .  T
C1579      C1580   1.411       .  A
C1579      C1584   1.412       .  A
C1580      H1585   1.082       .  S
C1580      C1581   1.397       .  A
C1581      C1582   1.404       .  A
C1581      C1588   1.443       .  S
C1582      C1583   1.408       .  A
C1583      H1586   1.085       .  S
C1583      C1584   1.407       .  A
C1584      C1587   1.443       .  S
C1587      N1589   1.157       .  T
C1588      N1590   1.156       .  T
C1591      C1592   1.403       .  A
C1591      C1596   1.410       .  A
C1592      H1597   1.085       .  S
C1592      C1593   1.399       .  A
C1593      C1594   1.414       .  A
C1593      C1600   1.445       .  S
C1594      C1595   1.409       .  A
C1595      H1598   1.084       .  S
C1595      C1596   1.410       .  A
C1596      C1599   1.443       .  S
C1599      N1601   1.157       .  T
C1600      N1602   1.157       .  T
C1603      C1604   1.413       .  A
C1603      C1608   1.412       .  A
C1604      H1609   1.084       .  S
C1604      C1605   1.407       .  A
C1605      C1606   1.410       .  A
C1605      C1612   1.443       .  S
C1606      C1607   1.412       .  A
C1607      H1610   1.085       .  S
C1607      C1608   1.409       .  A
C1608      C1611   1.443       .  S
C1611      N1613   1.158       .  T
C1612      N1614   1.157       .  T
C1615      C1616   1.401       .  A
C1615      C1620   1.412       .  A
C1616      H1621   1.085       .  S
C1616      C1617   1.394       .  A
C1617      C1618   1.412       .  A
C1617      C1624   1.444       .  S
C1618      C1619   1.407       .  A
C1619      H1622   1.084       .  S
C1619      C1620   1.411       .  A
C1620      C1623   1.442       .  S
C1623      N1625   1.157       .  T
C1624      N1626   1.157       .  T
C1627      C1628   1.397       .  A
C1627      C1632   1.415       .  A
C1628      H1633   1.085       .  S
C1628      C1629   1.406       .  A
C1629      C1630   1.425       .  A
C1629      C1636   1.441       .  S
C1630      C1631   1.408       .  A
C1631      H1634   1.084       .  S
C1631      C1632   1.413       .  A
C1632      C1635   1.443       .  S
C1635      N1637   1.157       .  T
C1636      N1638   1.156       .  T
C1639      C1640   1.404       .  A
C1639      C1644   1.411       .  A
C1640      H1645   1.084       .  S
C1640      C1641   1.412       .  A
C1641      C1642   1.420       .  A
C1641      C1648   1.442       .  S
C1642      C1643   1.404       .  A
C1643      H1646   1.085       .  S
C1643      C1644   1.391       .  A
C1644      C1647   1.447       .  S
C1647      N1649   1.157       .  T
C1648      N1650   1.157   1_545  T
C1651      C1652   1.404       .  A
C1651      C1656   1.417       .  A
C1652      H1657   1.085       .  S
C1652      C1653   1.404       .  A
C1653      C1654   1.409       .  A
C1653      C1660   1.444       .  S
C1654      C1655   1.394       .  A
C1655      H1658   1.085       .  S
C1655      C1656   1.396       .  A
C1656      C1659   1.442       .  S
C1659      N1661   1.156       .  T
C1660      N1662   1.157       .  T
C1663      C1664   1.414       .  A
C1663      C1668   1.412       .  A
C1664      H1669   1.085       .  S
C1664      C1665   1.415       .  A
C1665      C1666   1.411       .  A
C1665      C1672   1.443       .  S
C1666      C1667   1.411       .  A
C1667      H1670   1.085       .  S
C1667      C1668   1.405       .  A
C1668      C1671   1.444       .  S
C1671      N1673   1.157       .  T
C1672      N1674   1.157       .  T
