geometry optimzed in LAMMPS
_audit_creation_date              2020-11-30 
_audit_creation_method            'lammps2cif' 
_symmetry_space_group_name_H-M    'P1' 
_symmetry_Int_Tables_number       1 
_symmetry_cell_setting            triclinic 
loop_ 
_symmetry_equiv_pos_as_xyz 
  x,y,z 
_cell_length_a                    48.646894200803146 
_cell_length_b                    48.57809565822266 
_cell_length_c                    48.6597341899978 
_cell_angle_alpha                 90.028383312261 
_cell_angle_beta                  90.16705819416532 
_cell_angle_gamma                 90.27554702913424 
loop_ 
_atom_site_label 
_atom_site_type_symbol 
_atom_site_fract_x 
_atom_site_fract_y 
_atom_site_fract_z 
_atom_site_charge 
O1          O  0.09973588  0.46020777  0.49270542    -0.71970
O2          O  0.09739927  0.53856563  0.51402525    -0.72950
O3          O  0.09807560  0.48906343  0.54019366    -0.61570
O4          O  0.10071937  0.51310255  0.46464293    -0.69980
O5          O  0.06249815  0.48953065  0.45743773    -0.69540
O6          O  0.05345254  0.48135531  0.53788073    -0.60790
O7          O  0.05322596  0.54513136  0.50461239    -0.73300
O8          O  0.06023238  0.46639968  0.47000916    -0.72080
Cu9        Cu  0.09866852  0.49996628  0.50275878     1.04560
Cu10       Cu  0.02835012  0.49467614  0.49613881     1.04330
C11         C  0.08020416  0.44986985  0.47880069     0.94220
C12         C  0.07691787  0.55444543  0.51203839     0.93360
C13         C  0.07609244  0.48161959  0.55144324     0.85510
C14         C  0.08155321  0.50646695  0.44850827     0.91780
O15         O  0.52757998  0.94498112  0.53979403    -0.71970
O16         O  0.54879317  0.94103639  0.46221574    -0.72950
O17         O  0.57667996  0.94135765  0.51477727    -0.61570
O18         O  0.50153945  0.94363910  0.49028765    -0.69980
O19         O  0.50437164  0.98759311  0.47916299    -0.69540
O20         O  0.58423657  0.97905971  0.49031564    -0.60790
O21         O  0.57070566  0.98133423  0.46706943    -0.73300
O22         O  0.53627625  0.98993420  0.54395976    -0.72080
Cu23       Cu  0.53868468  0.94301733  0.50160650     1.04560
Cu24       Cu  0.54471970  0.01364494  0.49441227     1.04330
C25         C  0.52932508  0.96652586  0.55424781     0.94220
C26         C  0.56261948  0.96031004  0.45141039     0.93360
C27         C  0.59300796  0.95992590  0.50708357     0.85510
C28         C  0.49100166  0.96469075  0.47976276     0.91780
O29         O  0.98673212  0.53832852  0.49477705    -0.71970
O30         O  0.99061858  0.45940521  0.51226604    -0.72950
O31         O  0.99028120  0.50742423  0.54124842    -0.61570
O32         O  0.98673721  0.48685400  0.46420822    -0.69980
O33         O  0.02458956  0.51149280  0.45719386    -0.69540
O34         O  0.03339594  0.52174927  0.53714675    -0.60790
O35         O  0.03562988  0.45628716  0.50575592    -0.73300
O36         O  0.02582015  0.53369162  0.47134230    -0.72080
Cu37       Cu  0.98877853  0.49824830  0.50311846     1.04560
Cu38       Cu  0.05888305  0.50631504  0.49685030     1.04330
C39         C  0.00543869  0.54936570  0.48042104     0.94220
C40         C  0.01229043  0.44523136  0.51105475     0.93360
C41         C  0.01135847  0.51867045  0.55134403     0.85510
C42         C  0.00541296  0.49461652  0.44802425     0.91780
O43         O  0.51475443  0.46673003  0.02072016    -0.71970
O44         O  0.58450504  0.51134967  0.01183802    -0.72950
O45         O  0.54130655  0.45591089  0.01507250    -0.61570
O46         O  0.51564232  0.53409874  0.00743986    -0.69980
O47         O  0.53060308  0.53863094  0.05100110    -0.69540
O48         O  0.55998736  0.46328657  0.05656460    -0.60790
O49         O  0.58067804  0.51468322  0.05663173    -0.73300
O50         O  0.50600382  0.48994123  0.05795551    -0.72080
Cu51       Cu  0.54479743  0.49512461  0.98444418     1.04560
Cu52       Cu  0.54443826  0.50141129  0.05539675     1.04330
C53         C  0.49731350  0.47511231  0.03882623     0.94220
C54         C  0.59482556  0.51737336  0.03544896     0.93360
C55         C  0.55672627  0.44759098  0.03584963     0.85510
C56         C  0.51710743  0.54762634  0.03045361     0.91780
N57         N  0.33705730  0.44417840  0.05837246    -0.26320
N58         N  0.34871792  0.42501016  0.07380165    -0.34180
C59         C  0.37607354  0.42628259  0.07104525     0.02020
C60         C  0.38262244  0.44712899  0.05300118     0.08050
C61         C  0.35734594  0.45837106  0.04548159    -0.05050
H62         H  0.39028198  0.41300884  0.08181401     0.08710
H63         H  0.35398129  0.47519976  0.03133525     0.09910
Cu64       Cu  0.32938527  0.39694782  0.09910807     0.44170
Cu65       Cu  0.29371623  0.44866518  0.05555700     0.41990
Cu66       Cu  0.25951975  0.40092716  0.10374607     0.43880
N67         N  0.30791579  0.37186256  0.12572782    -0.33710
N68         N  0.28110015  0.37435709  0.12827440    -0.27960
C69         C  0.27204341  0.35695620  0.14771049    -0.04060
C70         C  0.29439101  0.34255799  0.15762161     0.08160
C71         C  0.31685162  0.35240916  0.14320085     0.01950
H72         H  0.25079088  0.35471271  0.15385212     0.09600
H73         H  0.33809081  0.34632798  0.14560496     0.08680
N74         N  0.23937916  0.42588895  0.07645855    -0.35150
N75         N  0.25046956  0.44369752  0.05908075    -0.27330
C76         C  0.22973236  0.45576761  0.04490400    -0.02570
C77         C  0.20485844  0.44448397  0.05376373     0.06040
C78         C  0.21201846  0.42580730  0.07370592     0.04130
H79         H  0.23252487  0.47099193  0.02892508     0.09240
H80         H  0.19824911  0.41294977  0.08557693     0.08070
N81         N  0.09652726  0.43784668  0.70725959    -0.26320
N82         N  0.11424394  0.42195891  0.69416719    -0.34180
C83         C  0.11170605  0.42611924  0.66702171     0.02020
C84         C  0.09121506  0.44516400  0.66271859     0.08050
C85         C  0.08209470  0.45240797  0.68860359    -0.05050
H86         H  0.12435115  0.41646800  0.65154202     0.08710
H87         H  0.06691658  0.46782687  0.69355690     0.09910
Cu88       Cu  0.14218368  0.39566175  0.71265503     0.44170
Cu89       Cu  0.09416016  0.44033280  0.74988100     0.41990
Cu90       Cu  0.14429757  0.39703643  0.78512775     0.43880
N91         N  0.16895257  0.37141342  0.73520165    -0.33710
N92         N  0.17038324  0.37275829  0.76226607    -0.27960
C93         C  0.19017730  0.35572812  0.77124329    -0.04060
C94         C  0.20143343  0.34272527  0.74868991     0.08160
C95         C  0.18745097  0.35303479  0.72615871     0.01950
H96         H  0.19554076  0.35262826  0.79260626     0.09600
H97         H  0.19070596  0.34784458  0.70479609     0.08680
N98         N  0.11699918  0.42281751  0.80471542    -0.35150
N99         N  0.09870932  0.43865989  0.79238025    -0.27330
C100        C  0.08512422  0.45313054  0.81165323    -0.02570
C101        C  0.09563243  0.44614758  0.83724865     0.06040
C102        C  0.11560009  0.42672750  0.83193556     0.04130
H103        H  0.06925055  0.46803119  0.80727743     0.09240
H104        H  0.12820513  0.41598524  0.84676369     0.08070
N105        N  0.98473517  0.44594365  0.29242000    -0.26320
N106        N  0.96919000  0.42762359  0.30526749    -0.34180
C107        C  0.97115714  0.43159110  0.33248330     0.02020
C108        C  0.98891074  0.45337689  0.33753849     0.08050
C109        C  0.99703956  0.46212946  0.31152541    -0.05050
H110        H  0.95984471  0.41971367  0.34750312     0.08710
H111        H  0.01110117  0.47878370  0.30683460     0.09910
Cu112      Cu  0.94457589  0.39800699  0.28664794     0.44170
Cu113      Cu  0.98814083  0.44722612  0.24926555     0.41990
Cu114      Cu  0.94119596  0.39923096  0.21430239     0.43880
N115        N  0.91786390  0.37292258  0.26466805    -0.33710
N116        N  0.91556305  0.37458459  0.23768165    -0.27960
C117        C  0.89566609  0.35725546  0.22912698    -0.04060
C118        C  0.88524820  0.34373752  0.25185795     0.08160
C119        C  0.89983124  0.35407555  0.27406679     0.01950
H120        H  0.88966176  0.35430023  0.20790186     0.09600
H121        H  0.89718884  0.34870281  0.29547149     0.08680
N122        N  0.97119580  0.42210145  0.19450471    -0.35150
N123        N  0.98776998  0.44019905  0.20650565    -0.27330
C124        C  0.00430431  0.45121596  0.18709064    -0.02570
C125        C  0.99813920  0.43895936  0.16198769     0.06040
C126        C  0.97706019  0.42071157  0.16756444     0.04130
H127        H  0.02003456  0.46655658  0.19101208     0.09240
H128        H  0.96648475  0.40753748  0.15299943     0.08070
O129        O  0.02900867  0.44197568  0.03332738    -0.71970
O130        O  0.05274246  0.44695326  0.95707052    -0.72950
O131        O  0.08128482  0.44451199  0.00562740    -0.61570
O132        O  0.00337548  0.44722865  0.98393924    -0.69980
O133        O  0.99816376  0.49119786  0.99535575    -0.69540
O134        O  0.07573055  0.48333377  0.02993592    -0.60790
O135        O  0.06353894  0.49088812  0.96224042    -0.73300
O136        O  0.05156629  0.48055198  0.04301121    -0.72080
Cu137      Cu  0.04179016  0.44552039  0.99489659     1.04560
Cu138      Cu  0.04814139  0.51544224  0.00305426     1.04330
C139        C  0.03626031  0.45965050  0.05089894     0.94220
C140        C  0.06285369  0.46885366  0.94781261     0.93360
C141        C  0.09148977  0.46262144  0.02154042     0.85510
C142        C  0.98804377  0.46784968  0.98779602     0.91780
N143        N  0.83724867  0.55741897  0.06150867    -0.26320
N144        N  0.84864132  0.57418429  0.07975991    -0.34180
C145        C  0.87599250  0.57321682  0.07755116     0.02020
C146        C  0.88251114  0.55491457  0.05707253     0.08050
C147        C  0.85752702  0.54501318  0.04727119    -0.05050
H148        H  0.89013615  0.58550577  0.08967765     0.08710
H149        H  0.85433119  0.53083580  0.03039664     0.09910
Cu150      Cu  0.82868409  0.59997053  0.10629389     0.44170
Cu151      Cu  0.79464721  0.55443560  0.05616168     0.41990
Cu152      Cu  0.75954484  0.60900452  0.09586286     0.43880
N153        N  0.80711369  0.62836025  0.12854761    -0.33710
N154        N  0.78084682  0.63276502  0.12371697    -0.27960
C155        C  0.77191268  0.65280203  0.14043878    -0.04060
C156        C  0.79378186  0.66111767  0.15668755     0.08160
C157        C  0.81579612  0.64519863  0.14867773     0.01950
H158        H  0.75099793  0.66024186  0.14114378     0.09600
H159        H  0.83656474  0.64590995  0.15667492     0.08680
N160        N  0.74024541  0.57946273  0.07235351    -0.35150
N161        N  0.75201288  0.55953694  0.05810602    -0.27330
C162        C  0.73204916  0.54358657  0.04700048    -0.02570
C163        C  0.70678016  0.55397982  0.05505101     0.06040
C164        C  0.71292016  0.57671383  0.07089365     0.04130
H165        H  0.73566256  0.52530823  0.03485346     0.09240
H166        H  0.69855170  0.59023856  0.08104723     0.08070
N167        N  0.98831180  0.56131868  0.70678045    -0.26320
N168        N  0.97206076  0.57879179  0.69374418    -0.34180
C169        C  0.97540343  0.57572937  0.66652463     0.02020
C170        C  0.99461776  0.55541522  0.66219784     0.08050
C171        C  0.00221907  0.54643539  0.68807341    -0.05050
H172        H  0.96407609  0.58692521  0.65100576     0.08710
H173        H  0.01650828  0.53013877  0.69293751     0.09910
Cu174      Cu  0.94465170  0.60513912  0.71278646     0.44170
Cu175      Cu  0.99044189  0.55842620  0.74937454     0.41990
Cu176      Cu  0.93899881  0.59901728  0.78551842     0.43880
N177        N  0.91723166  0.62807933  0.73576866    -0.33710
N178        N  0.91445860  0.62503581  0.76259460    -0.27960
C179        C  0.89453770  0.64187479  0.77156201    -0.04060
C180        C  0.88456245  0.65644233  0.74930179     0.08160
C181        C  0.89943188  0.64727078  0.72694075     0.01950
H182        H  0.88818879  0.64373833  0.79276669     0.09600
H183        H  0.89726832  0.65379666  0.70579585     0.08680
N184        N  0.96709862  0.57354435  0.80466288    -0.35150
N185        N  0.98649973  0.55950655  0.79189666    -0.27330
C186        C  0.00158005  0.54593661  0.81075391    -0.02570
C187        C  0.99070494  0.55138150  0.83641911     0.06040
C188        C  0.96899499  0.56896473  0.83179634     0.04130
H189        H  0.01878409  0.53271395  0.80609108     0.09240
H190        H  0.95573513  0.57807216  0.84708822     0.08070
N191        N  0.09858294  0.55647528  0.29258736    -0.26320
N192        N  0.11718152  0.57239476  0.30461924    -0.34180
C193        C  0.11676958  0.56800320  0.33179651     0.02020
C194        C  0.09662722  0.54867572  0.33783826     0.08050
C195        C  0.08561267  0.54165613  0.31225294    -0.05050
H196        H  0.13073236  0.57799375  0.34599160     0.08710
H197        H  0.06922095  0.52708928  0.30817720     0.09910
Cu198      Cu  0.14294894  0.60031216  0.28522687     0.44170
Cu199      Cu  0.09291851  0.55577751  0.24966877     0.41990
Cu200      Cu  0.14496844  0.59796816  0.21370162     0.43880
N201        N  0.16845022  0.62605823  0.26284167    -0.33710
N202        N  0.17017459  0.62417311  0.23585799    -0.27960
C203        C  0.18891258  0.64240966  0.22671182    -0.04060
C204        C  0.19916822  0.65672113  0.24910750     0.08160
C205        C  0.18569279  0.64592210  0.27170154     0.01950
H206        H  0.19420160  0.64543053  0.20534333     0.09600
H207        H  0.18850005  0.65175385  0.29298792     0.08680
N208        N  0.11482410  0.57478064  0.19447806    -0.35150
N209        N  0.09539627  0.56007608  0.20667865    -0.27330
C210        C  0.07882604  0.54927049  0.18702781    -0.02570
C211        C  0.08858951  0.55745591  0.16143733     0.06040
C212        C  0.11131147  0.57361566  0.16717860     0.04130
H213        H  0.06117261  0.53626509  0.19103922     0.09240
H214        H  0.12409302  0.58446346  0.15255570     0.08070
O215        O  0.05660207  0.55886173  0.03268600    -0.71970
O216        O  0.03162841  0.55243975  0.95717588    -0.72950
O217        O  0.00368102  0.55598952  0.00538465    -0.61570
O218        O  0.08091737  0.55277643  0.98315233    -0.69980
O219        O  0.08707943  0.50913979  0.99536182    -0.69540
O220        O  0.00981549  0.51730754  0.02965527    -0.60790
O221        O  0.02190578  0.50813792  0.96178834    -0.73300
O222        O  0.03374763  0.52056966  0.04220364    -0.72080
Cu223      Cu  0.04295606  0.55467349  0.99459832     1.04560
Cu224      Cu  0.03714110  0.48468052  0.00353994     1.04330
C225        C  0.04946419  0.54108313  0.05005846     0.94220
C226        C  0.02267494  0.53023454  0.94740213     0.93360
C227        C  0.99376796  0.53777419  0.02121079     0.85510
C228        C  0.09657369  0.53241007  0.98687577     0.91780
N229        N  0.74775834  0.44029975  0.94087962    -0.26320
N230        N  0.73644363  0.41936622  0.92753583    -0.34180
C231        C  0.70925671  0.41900264  0.93207540     0.02020
C232        C  0.70294742  0.44077566  0.94899019     0.08050
C233        C  0.72772803  0.45414197  0.95397639    -0.05050
H234        H  0.69497786  0.40457591  0.92278825     0.08710
H235        H  0.73090563  0.47257888  0.96608137     0.09910
Cu236      Cu  0.75707564  0.39296361  0.90189277     0.44170
Cu237      Cu  0.79008955  0.44795400  0.94124831     0.41990
Cu238      Cu  0.82873352  0.40102595  0.89668225     0.43880
N239        N  0.78025368  0.37032218  0.87490651    -0.33710
N240        N  0.80698375  0.37401064  0.87207403    -0.27960
C241        C  0.81621704  0.35723688  0.85218396    -0.04060
C242        C  0.79412344  0.34212964  0.84238440     0.08160
C243        C  0.77166840  0.35085307  0.85725172     0.01950
H244        H  0.83742973  0.35581616  0.84573236     0.09600
H245        H  0.75060358  0.34388827  0.85515980     0.08680
N246        N  0.84631786  0.42755785  0.92492749    -0.35150
N247        N  0.83294262  0.44522394  0.94064406    -0.27330
C248        C  0.85129001  0.45836886  0.95694213    -0.02570
C249        C  0.87719439  0.44807687  0.95132313     0.06040
C250        C  0.87319075  0.42867845  0.93097966     0.04130
H251        H  0.84603215  0.47330947  0.97253651     0.09240
H252        H  0.88868473  0.41591673  0.92151351     0.08070
N253        N  0.25128801  0.55521517  0.94117344    -0.26320
N254        N  0.23843180  0.57077217  0.92292735    -0.34180
C255        C  0.21127229  0.56853308  0.92670543     0.02020
C256        C  0.20667257  0.55066354  0.94820431     0.08050
C257        C  0.23241612  0.54240489  0.95690676    -0.05050
H258        H  0.19599703  0.57988879  0.91521576     0.08710
H259        H  0.23712562  0.52930487  0.97424882     0.09910
Cu260      Cu  0.25655753  0.59676173  0.89473344     0.44170
Cu261      Cu  0.29369140  0.55394600  0.94543848     0.41990
Cu262      Cu  0.32757954  0.60075727  0.89720146     0.43880
N263        N  0.27810777  0.62412388  0.87057126    -0.33710
N264        N  0.30505183  0.62643301  0.87249500    -0.27960
C265        C  0.31378425  0.64655119  0.85569499    -0.04060
C266        C  0.29111157  0.65707858  0.84226887     0.08160
C267        C  0.26879986  0.64238531  0.85206842     0.01950
H268        H  0.33504753  0.65260015  0.85303906     0.09600
H269        H  0.24742488  0.64500795  0.84648927     0.08680
N270        N  0.34748246  0.57370381  0.92270270    -0.35150
N271        N  0.33594805  0.55751422  0.94119318    -0.27330
C272        C  0.35589445  0.54400123  0.95481837    -0.02570
C273        C  0.38118121  0.55206784  0.94414892     0.06040
C274        C  0.37472570  0.57061821  0.92357866     0.04130
H275        H  0.35207620  0.52961158  0.97131428     0.09240
H276        H  0.38854270  0.58100291  0.90964011     0.08070
O277        O  0.58170181  0.48792631  0.94881666    -0.71970
O278        O  0.50727354  0.51698118  0.94265111    -0.72950
O279        O  0.55783538  0.53810928  0.94587890    -0.61570
O280        O  0.53356131  0.46289825  0.94066443    -0.69980
O281        O  0.51101531  0.47228007  0.97794075    -0.69540
O282        O  0.55650947  0.54025990  0.99098597    -0.60790
O283        O  0.49964412  0.49815356  0.98385317    -0.73540
O284        O  0.57777988  0.47174212  0.99203451    -0.72080
Cu285      Cu  0.54481258  0.50152015  0.94468131     1.04560
Cu286      Cu  0.53821322  0.50029988  0.01583572     1.04330
C287        C  0.59136052  0.47477921  0.96916352     0.94220
C288        C  0.49150619  0.51386815  0.96313614     0.93360
C289        C  0.56188141  0.55123345  0.96767836     0.85510
C290        C  0.51925659  0.45443848  0.96022352     0.91780
N291        N  0.60029370  0.29190411  0.05828909    -0.26320
N292        N  0.61805491  0.30428848  0.07481949    -0.34180
C293        C  0.61565002  0.33157240  0.07226507     0.02020
C294        C  0.59566845  0.33714561  0.05284441     0.08050
C295        C  0.58618285  0.31137251  0.04447059    -0.05050
H296        H  0.62731274  0.34619623  0.08439323     0.08710
H297        H  0.57040110  0.30698458  0.02938073     0.09910
Cu298      Cu  0.64549368  0.28531263  0.10068557     0.44170
Cu299      Cu  0.59664555  0.24907567  0.05603568     0.41990
Cu300      Cu  0.64300299  0.21346876  0.10423202     0.43880
N301        N  0.67053512  0.26357847  0.12679751    -0.33710
N302        N  0.66868366  0.23658709  0.12917254    -0.27960
C303        C  0.68646275  0.22810319  0.14854995    -0.04060
C304        C  0.70037848  0.25095534  0.15845034     0.08160
C305        C  0.68986411  0.27311292  0.14418217     0.01950
H306        H  0.68939316  0.20688229  0.15458062     0.09600
H307        H  0.69543839  0.29457035  0.14658533     0.08680
N308        N  0.61911312  0.19407141  0.07472376    -0.35150
N309        N  0.60171153  0.20640043  0.05780873    -0.27330
C310        C  0.59036074  0.18722854  0.04117204    -0.02570
C311        C  0.60167351  0.16192824  0.04765499     0.06040
C312        C  0.61969596  0.16704502  0.06898745     0.04130
H313        H  0.57580969  0.19152795  0.02489319     0.09240
H314        H  0.63252513  0.15222230  0.07946300     0.08070
N315        N  0.60494943  0.70781598  0.94683181    -0.26320
N316        N  0.62413433  0.69605219  0.93172900    -0.34180
C317        C  0.62221949  0.66872344  0.93424469     0.02020
C318        C  0.60067879  0.66267928  0.95162166     0.08050
C319        C  0.59017018  0.68795972  0.95946334    -0.05050
H320        H  0.63499664  0.65425790  0.92327669     0.08710
H321        H  0.57230471  0.69160058  0.97212123     0.09910
Cu322      Cu  0.65055205  0.71592500  0.90544770     0.44170
Cu323      Cu  0.59932062  0.75015361  0.94713378     0.41990
Cu324      Cu  0.64139034  0.78646674  0.89489063     0.43880
N325        N  0.67324330  0.73743130  0.87708978    -0.33710
N326        N  0.66921646  0.76382856  0.87229105    -0.27960
C327        C  0.68605130  0.77201480  0.85198307    -0.04060
C328        C  0.70152248  0.74958853  0.84394744     0.08160
C329        C  0.69292761  0.72801674  0.86029068     0.01950
H330        H  0.68714296  0.79274193  0.84392242     0.09600
H331        H  0.70005101  0.70696032  0.85971735     0.08680
N332        N  0.61468326  0.80515643  0.92205914    -0.35150
N333        N  0.60012090  0.79252117  0.94129661    -0.27330
C334        C  0.58690559  0.81159075  0.95631960    -0.02570
C335        C  0.59316411  0.83718655  0.94561973     0.06040
C336        C  0.61087120  0.83241162  0.92413991     0.04130
H337        H  0.57420161  0.80718304  0.97400571     0.09240
H338        H  0.62115299  0.84770064  0.91163337     0.08070
N339        N  0.59614330  0.93899954  0.20988608    -0.26320
N340        N  0.61368102  0.92310964  0.19656799    -0.34180
C341        C  0.61196761  0.92845460  0.16956377     0.02020
C342        C  0.59224946  0.94841057  0.16549895     0.08050
C343        C  0.58253552  0.95465630  0.19147100    -0.05050
H344        H  0.62473623  0.91903304  0.15404379     0.08710
H345        H  0.56780059  0.97040814  0.19671308     0.09910
Cu346      Cu  0.64098369  0.89590842  0.21472211     0.44170
Cu347      Cu  0.59412513  0.94089970  0.25265355     0.41990
Cu348      Cu  0.64960430  0.90292567  0.28622272     0.43880
N349        N  0.66870825  0.87235658  0.23681964    -0.33710
N350        N  0.67253037  0.87583970  0.26345841    -0.27960
C351        C  0.69232697  0.85875949  0.27222636    -0.04060
C352        C  0.70121516  0.84359726  0.24998677     0.08160
C353        C  0.68578604  0.85262386  0.22784720     0.01950
H354        H  0.69941167  0.85726412  0.29326417     0.09600
H355        H  0.68715933  0.84571109  0.20676107     0.08680
N356        N  0.62229124  0.92787143  0.30642812    -0.35150
N357        N  0.60122869  0.94065612  0.29494345    -0.27330
C358        C  0.58623829  0.95249486  0.31494140    -0.02570
C359        C  0.59896997  0.94720612  0.33986853     0.06040
C360        C  0.62159235  0.93153889  0.33371182     0.04130
H361        H  0.56726624  0.96356822  0.31166123     0.09240
H362        H  0.63569399  0.92217462  0.34813866     0.08070
O363        O  0.59810949  0.95899366  0.99268505    -0.71970
O364        O  0.60113230  0.03485981  0.01540996    -0.72950
O365        O  0.59589116  0.98604347  0.04121872    -0.61570
O366        O  0.60095099  0.00630511  0.96357940    -0.69980
O367        O  0.56134312  0.02913679  0.96757150    -0.69540
O368        O  0.55125243  0.99493846  0.04464963    -0.60790
O369        O  0.56333216  0.04280240  0.99123466    -0.73300
O370        O  0.55443218  0.96199189  0.98037018    -0.72080
Cu371      Cu  0.59862640  0.99656756  0.00304430     1.04560
Cu372      Cu  0.52835794  0.00268916  0.99426131     1.04330
C373        C  0.57698530  0.94838387  0.98225779     0.94220
C374        C  0.58329751  0.05162428  0.00726041     0.93360
C375        C  0.57443877  0.98831374  0.05561117     0.85510
C376        C  0.58221191  0.02039116  0.95225886     0.91780
N377        N  0.48725906  0.79094126  0.05999641    -0.26320
N378        N  0.47116523  0.80327549  0.07809576    -0.34180
C379        C  0.47350370  0.83059949  0.07528732     0.02020
C380        C  0.49200320  0.83617298  0.05460539     0.08050
C381        C  0.50050422  0.81055837  0.04530380    -0.05050
H382        H  0.46195337  0.84543060  0.08710745     0.08710
H383        H  0.51425589  0.80650507  0.02836165     0.09910
Cu384      Cu  0.44458155  0.78468604  0.10555418     0.44170
Cu385      Cu  0.48841773  0.74794226  0.05505454     0.41990
Cu386      Cu  0.43614035  0.71459040  0.09858682     0.43880
N387        N  0.41657442  0.76340852  0.12939705    -0.33710
N388        N  0.41264310  0.73676920  0.12591139    -0.27960
C389        C  0.39255665  0.72813879  0.14280605    -0.04060
C390        C  0.38365988  0.75051723  0.15789397     0.08160
C391        C  0.39938075  0.77257057  0.14894648     0.01950
H392        H  0.38525250  0.70711672  0.14423517     0.09600
H393        H  0.39808120  0.79373179  0.15574430     0.08680
N394        N  0.46218951  0.69411656  0.07225616    -0.35150
N395        N  0.48128118  0.70521016  0.05634605    -0.27330
C396        C  0.49441643  0.68464212  0.04303635    -0.02570
C397        C  0.48301754  0.65965927  0.05131397     0.06040
C398        C  0.46268565  0.66670060  0.06967295     0.04130
H399        H  0.51154720  0.68756610  0.02919728     0.09240
H400        H  0.44929960  0.65280385  0.08079446     0.08070
N401        N  0.48496057  0.29468890  0.94382909    -0.26320
N402        N  0.46651328  0.30645002  0.92764196    -0.34180
C403        C  0.46819157  0.33387332  0.93017609     0.02020
C404        C  0.48866858  0.34025243  0.94878391     0.08050
C405        C  0.49918465  0.31487748  0.95692207    -0.05050
H406        H  0.45560327  0.34823115  0.91879455     0.08710
H407        H  0.51559514  0.31138776  0.97154364     0.09910
Cu408      Cu  0.43955045  0.28657694  0.90142563     0.44170
Cu409      Cu  0.48838038  0.25138796  0.94724969     0.41990
Cu410      Cu  0.44512804  0.21529500  0.89596120     0.43880
N411        N  0.41573449  0.26438050  0.87406269    -0.33710
N412        N  0.41865534  0.23756431  0.87106803    -0.27960
C413        C  0.40138253  0.22867583  0.85127163    -0.04060
C414        C  0.38669175  0.25105680  0.84164999     0.08160
C415        C  0.39626187  0.27336070  0.85660570     0.01950
H416        H  0.39926777  0.20745943  0.84479474     0.09600
H417        H  0.38982482  0.29456459  0.85472088     0.08680
N418        N  0.46886078  0.19579966  0.92558015    -0.35150
N419        N  0.48402601  0.20805645  0.94468914    -0.27330
C420        C  0.49480646  0.18834643  0.96114070    -0.02570
C421        C  0.48617542  0.16261571  0.95167561     0.06040
C422        C  0.46977055  0.16841981  0.92917820     0.04130
H423        H  0.50800838  0.19240310  0.97862152     0.09240
H424        H  0.45848040  0.15378332  0.91669031     0.08070
N425        N  0.48431278  0.94062729  0.79206584    -0.26320
N426        N  0.46673970  0.92415270  0.80465732    -0.34180
C427        C  0.46858148  0.92810008  0.83178534     0.02020
C428        C  0.48859858  0.94777523  0.83678707     0.08050
C429        C  0.49807536  0.95544013  0.81105800    -0.05050
H430        H  0.45582418  0.91756581  0.84663026     0.08710
H431        H  0.51397540  0.97035249  0.80640883     0.09910
Cu432      Cu  0.44083342  0.89652038  0.78573934     0.44170
Cu433      Cu  0.48791375  0.94225762  0.74980869     0.41990
Cu434      Cu  0.43712773  0.89971184  0.71341837     0.43880
N435        N  0.41506085  0.87159415  0.76326768    -0.33710
N436        N  0.41273703  0.87359323  0.73631822    -0.27960
C437        C  0.39350191  0.85570050  0.72752104    -0.04060
C438        C  0.38363256  0.84160742  0.75011555     0.08160
C439        C  0.39775394  0.85207854  0.77244814     0.01950
H440        H  0.38751922  0.85286793  0.70627295     0.09600
H441        H  0.39530901  0.84635274  0.79378606     0.08680
N442        N  0.46587878  0.92466220  0.69454766    -0.35150
N443        N  0.48468145  0.93960604  0.70751914    -0.27330
C444        C  0.50073796  0.95216884  0.68884141    -0.02570
C445        C  0.49133128  0.94483614  0.66308798     0.06040
C446        C  0.46932667  0.92744060  0.66734299     0.04130
H447        H  0.51798129  0.96548831  0.69366678     0.09240
H448        H  0.45706659  0.91710764  0.65184156     0.08070
O449        O  0.53344743  0.96186166  0.02047282    -0.71970
O450        O  0.52289538  0.04254084  0.00787397    -0.72950
O451        O  0.52600183  0.02963488  0.03185590    -0.61570
O452        O  0.53583563  0.99415326  0.95564072    -0.69980
O453        O  0.49072330  0.98617713  0.95937061    -0.69540
O454        O  0.48666601  0.00630833  0.03691749    -0.60790
O455        O  0.48453876  0.03438095  0.98480285    -0.73300
O456        O  0.49005155  0.95915068  0.00754273    -0.72080
Cu457      Cu  0.55881765  0.00330403  0.00583508     1.04560
Cu458      Cu  0.48840511  0.99658009  0.99736286     1.04330
C459        C  0.51066537  0.94843581  0.01863138     0.94220
C460        C  0.50275170  0.05115478  0.99212843     0.93360
C461        C  0.50546007  0.02097182  0.04766738     0.85510
C462        C  0.51241099  0.98733620  0.94524708     0.91780
N463        N  0.74757130  0.93757483  0.55612606    -0.26320
N464        N  0.73432596  0.92262163  0.57462191    -0.34180
C465        C  0.70719462  0.92518868  0.57065844     0.02020
C466        C  0.70271432  0.94267834  0.54871028     0.08050
C467        C  0.72886523  0.95007289  0.53983940    -0.05050
H468        H  0.69182500  0.91443759  0.58262676     0.08710
H469        H  0.73394317  0.96366908  0.52298674     0.09910
Cu470      Cu  0.75190344  0.89799787  0.60458159     0.44170
Cu471      Cu  0.79052343  0.93990802  0.55418062     0.41990
Cu472      Cu  0.82282213  0.90123272  0.60977146     0.43880
N473        N  0.77358271  0.87254458  0.63085919    -0.33710
N474        N  0.80065436  0.87328570  0.63170481    -0.27960
C475        C  0.80994263  0.85347411  0.64844562    -0.04060
C476        C  0.78746619  0.83991221  0.65910604     0.08160
C477        C  0.76465398  0.85253117  0.64774484     0.01950
H478        H  0.83139530  0.84960319  0.65284471     0.09600
H479        H  0.74329284  0.84719417  0.65102452     0.08680
N480        N  0.84373104  0.92461653  0.58213854    -0.35150
N481        N  0.83297110  0.93731981  0.56075090    -0.27330
C482        C  0.85369011  0.94721808  0.54530196    -0.02570
C483        C  0.87869174  0.94043440  0.55779447     0.06040
C484        C  0.87111232  0.92640411  0.58131685     0.04130
H485        H  0.85039806  0.95794668  0.52617788     0.09240
H486        H  0.88411772  0.91767846  0.59699591     0.08070
N487        N  0.98806719  0.29306675  0.56199540    -0.26320
N488        N  0.96913405  0.30654904  0.57597577    -0.34180
C489        C  0.97052025  0.33333453  0.56931849     0.02020
C490        C  0.99152855  0.33676927  0.55059452     0.08050
C491        C  0.00228465  0.31092988  0.54636372    -0.05050
H492        H  0.95709053  0.34909326  0.57732511     0.08710
H493        H  0.01854339  0.30536046  0.53232289     0.09910
Cu494      Cu  0.94183231  0.28815418  0.60302915     0.44170
Cu495      Cu  0.99223194  0.25093085  0.56297529     0.41990
Cu496      Cu  0.94012685  0.21420075  0.60175800     0.43880
N497        N  0.91570674  0.26479035  0.62727568    -0.33710
N498        N  0.91414795  0.23765833  0.62577575    -0.27960
C499        C  0.89470125  0.22863892  0.64321500    -0.04060
C500        C  0.88386278  0.25118058  0.65660420     0.08160
C501        C  0.89767430  0.27376022  0.64612290     0.01950
H502        H  0.88943453  0.20722381  0.64646426     0.09600
H503        H  0.89467207  0.29512950  0.65157044     0.08680
N504        N  0.97070898  0.19527629  0.57918259    -0.35150
N505        N  0.99003711  0.20867458  0.56549728    -0.27330
C506        C  0.00658776  0.19043122  0.55310128    -0.02570
C507        C  0.99711685  0.16441878  0.55935554     0.06040
C508        C  0.97436939  0.16810920  0.57578823     0.04130
H509        H  0.02374223  0.19574492  0.53999982     0.09240
H510        H  0.96126459  0.15225743  0.58436597     0.08070
N511        N  0.09809963  0.71076799  0.55858911    -0.26320
N512        N  0.11378673  0.69796223  0.57677851    -0.34180
C513        C  0.11257276  0.67077270  0.57235285     0.02020
C514        C  0.09526638  0.66584236  0.55041620     0.08050
C515        C  0.08619443  0.69162519  0.54220861    -0.05050
H516        H  0.12404943  0.65568243  0.58396239     0.08710
H517        H  0.07297614  0.69618599  0.52489977     0.09910
Cu518      Cu  0.13879946  0.71612130  0.60589984     0.44170
Cu519      Cu  0.09590554  0.75383596  0.55567949     0.41990
Cu520      Cu  0.14880086  0.78641080  0.59855101     0.43880
N521        N  0.16695346  0.73723557  0.62961416    -0.33710
N522        N  0.17164284  0.76369517  0.62574936    -0.27960
C523        C  0.19168373  0.77212875  0.64283507    -0.04060
C524        C  0.19975362  0.74979918  0.65838364     0.08160
C525        C  0.18365917  0.72797252  0.64957277     0.01950
H526        H  0.19937929  0.79302267  0.64417403     0.09600
H527        H  0.18430546  0.70692096  0.65678435     0.08680
N528        N  0.12091420  0.80753236  0.57499824    -0.35150
N529        N  0.10154580  0.79659131  0.55922128    -0.27330
C530        C  0.08699295  0.81729600  0.54778672    -0.02570
C531        C  0.09769167  0.84216091  0.55729040     0.06040
C532        C  0.11912627  0.83500576  0.57434632     0.04130
H533        H  0.06954130  0.81447803  0.53422551     0.09240
H534        H  0.13257103  0.84879106  0.58562660     0.08070
O535        O  0.99790649  0.98844463  0.55497709    -0.71970
O536        O  0.07298942  0.01791446  0.55505815    -0.72950
O537        O  0.02199372  0.04021742  0.55062840    -0.61570
O538        O  0.04756486  0.96388591  0.55592752    -0.69980
O539        O  0.06826766  0.96883582  0.51520984    -0.69540
O540        O  0.03460338  0.04474958  0.50660697    -0.60790
O541        O  0.08247864  0.99390106  0.51796897    -0.73300
O542        O  0.00072153  0.97944745  0.51067435    -0.72080
Cu543      Cu  0.03490155  0.00255289  0.55380319     1.04560
Cu544      Cu  0.03837469  0.99632722  0.48364608     1.04330
C545        C  0.98815343  0.97761917  0.53360765     0.94220
C546        C  0.09035434  0.01016800  0.53754042     0.93360
C547        C  0.02673030  0.05505311  0.52972942     0.85510
C548        C  0.06194262  0.95356771  0.53686255     0.91780
N549        N  0.60252550  0.05644823  0.79353064    -0.26320
N550        N  0.61777074  0.07538368  0.80604369    -0.34180
C551        C  0.61507564  0.07293198  0.83333287     0.02020
C552        C  0.59734289  0.05153317  0.83866804     0.08050
C553        C  0.58979605  0.04123708  0.81306493    -0.05050
H554        H  0.62581680  0.08552657  0.84828572     0.08710
H555        H  0.57633282  0.02390961  0.80898859     0.09910
Cu556      Cu  0.64322037  0.10386783  0.78765010     0.44170
Cu557      Cu  0.60029984  0.05266288  0.75026474     0.41990
Cu558      Cu  0.64299455  0.10476378  0.71668037     0.43880
N559        N  0.66870154  0.12979266  0.76588980    -0.33710
N560        N  0.66909508  0.12929727  0.73882225    -0.27960
C561        C  0.68849292  0.14667544  0.72963954    -0.04060
C562        C  0.70057898  0.15901923  0.75217344     0.08160
C563        C  0.68753543  0.14802269  0.77489807     0.01950
H564        H  0.69316314  0.15025987  0.70821062     0.09600
H565        H  0.69178842  0.15246472  0.79628341     0.08680
N566        N  0.61905171  0.07693982  0.69603321    -0.35150
N567        N  0.60380913  0.05734785  0.70719935    -0.27330
C568        C  0.59210585  0.04270480  0.68658469    -0.02570
C569        C  0.60065542  0.05372759  0.66147825     0.06040
C570        C  0.61749770  0.07550042  0.66861170     0.04130
H571        H  0.57857255  0.02525926  0.68967531     0.09240
H572        H  0.62764338  0.08984246  0.65497195     0.08070
N573        N  0.48541651  0.05950379  0.29027542    -0.26320
N574        N  0.46418747  0.07167077  0.30198248    -0.34180
C575        C  0.46599955  0.06884449  0.32929267     0.02020
C576        C  0.48975914  0.05460560  0.33562232     0.08050
C577        C  0.50148712  0.04877891  0.31022106    -0.05050
H578        H  0.45096510  0.07694567  0.34342019     0.08710
H579        H  0.52068639  0.03831666  0.30647186     0.09910
Cu580      Cu  0.43451595  0.09488632  0.28242139     0.44170
Cu581      Cu  0.49133862  0.05884668  0.24766276     0.41990
Cu582      Cu  0.44262676  0.10468319  0.21231028     0.43880
N583        N  0.41082488  0.12284525  0.26103549    -0.33710
N584        N  0.41473035  0.12738199  0.23461595    -0.27960
C585        C  0.39811002  0.14780871  0.22630656    -0.04060
C586        C  0.38282099  0.15631082  0.24866529     0.08160
C587        C  0.39134520  0.14001258  0.27035267     0.01950
H588        H  0.39714673  0.15574238  0.20555988     0.09600
H589        H  0.38444621  0.14102342  0.29144216     0.08680
N590        N  0.47008021  0.07897959  0.19289884    -0.35150
N591        N  0.48812425  0.06254205  0.20489955    -0.27330
C592        C  0.50150750  0.04835140  0.18516976    -0.02570
C593        C  0.49105663  0.05629837  0.15984650     0.06040
C594        C  0.47125477  0.07558097  0.16563159     0.04130
H595        H  0.51665347  0.03256939  0.18901314     0.09240
H596        H  0.45801374  0.08589822  0.15103952     0.08070
N597        N  0.33248484  0.05565530  0.55950362    -0.26320
N598        N  0.34390905  0.07060992  0.57921079    -0.34180
C599        C  0.37120951  0.06794269  0.57828427     0.02020
C600        C  0.37792831  0.05077161  0.55673908     0.08050
C601        C  0.35275248  0.04309950  0.54528858    -0.05050
H602        H  0.38512303  0.07797386  0.59252050     0.08710
H603        H  0.34943899  0.02991568  0.52765668     0.09910
Cu604      Cu  0.32416855  0.09602577  0.60652470     0.44170
Cu605      Cu  0.28968906  0.05361047  0.55418084     0.41990
Cu606      Cu  0.25383016  0.10193433  0.60135790     0.43880
N607        N  0.30310644  0.12377857  0.63033121    -0.33710
N608        N  0.27634884  0.12701319  0.62762758    -0.27960
C609        C  0.26813306  0.14729888  0.64452796    -0.04060
C610        C  0.29095667  0.15693742  0.65873419     0.08160
C611        C  0.31277118  0.14151854  0.64927009     0.01950
H612        H  0.24712580  0.15418751  0.64663078     0.09600
H613        H  0.33412395  0.14335827  0.65531552     0.08680
N614        N  0.23474598  0.07334572  0.57588557    -0.35150
N615        N  0.24685119  0.05606913  0.55874492    -0.27330
C616        C  0.22720003  0.04080928  0.54614141    -0.02570
C617        C  0.20161429  0.04902897  0.55577483     0.06040
C618        C  0.20747366  0.06950040  0.57471215     0.04130
H619        H  0.23126321  0.02511227  0.53093559     0.09240
H620        H  0.19299011  0.08063596  0.58728649     0.08070
O621        O  0.57202688  0.01461358  0.53303839    -0.71970
O622        O  0.53632198  0.00776396  0.45536892    -0.72950
O623        O  0.58419415  0.01851209  0.50911348    -0.61570
O624        O  0.50259308  0.00658376  0.52036294    -0.69980
O625        O  0.50033424  0.05133211  0.51378036    -0.69540
O626        O  0.57407312  0.05702206  0.48770366    -0.60790
O627        O  0.52454897  0.05121139  0.46389332    -0.73300
O628        O  0.54877026  0.05357989  0.54114724    -0.72080
Cu629      Cu  0.54464460  0.98283469  0.50514789     1.04560
Cu630      Cu  0.53696752  0.05280206  0.50181160     1.04330
C631        C  0.56420126  0.03460721  0.55004933     0.94220
C632        C  0.52714504  0.03137794  0.44721017     0.93360
C633        C  0.59170303  0.03921138  0.49355328     0.85510
C634        C  0.48956281  0.02944461  0.52207350     0.91780
N635        N  0.24797398  0.94315464  0.44187486    -0.26320
N636        N  0.23575034  0.92583286  0.42473611    -0.34180
C637        C  0.20848027  0.92890315  0.42646646     0.02020
C638        C  0.20264702  0.94883759  0.44594766     0.08050
C639        C  0.22840024  0.95755714  0.45521688    -0.05050
H640        H  0.19408225  0.91789529  0.41350863     0.08710
H641        H  0.23274449  0.97329038  0.47035237     0.09910
Cu642      Cu  0.25479970  0.89829765  0.39856474     0.44170
Cu643      Cu  0.29082801  0.94713791  0.44463553     0.41990
Cu644      Cu  0.32583712  0.90126663  0.39562670     0.43880
N645        N  0.27680917  0.87253187  0.37299269    -0.33710
N646        N  0.30379226  0.87442977  0.37125181    -0.27960
C647        C  0.31287267  0.85651862  0.35232101    -0.04060
C648        C  0.29041624  0.84238099  0.34192870     0.08160
C649        C  0.26784998  0.85293909  0.35553998     0.01950
H650        H  0.33421353  0.85381124  0.34677733     0.09600
H651        H  0.24651476  0.84725083  0.35256305     0.08680
N652        N  0.34535544  0.92879399  0.42136011    -0.35150
N653        N  0.33352933  0.94557430  0.43916880    -0.27330
C654        C  0.35346456  0.95946325  0.45283478    -0.02570
C655        C  0.37871931  0.95087782  0.44289960     0.06040
C656        C  0.37269769  0.93138184  0.42324046     0.04130
H657        H  0.34990636  0.97365439  0.46957669     0.09240
H658        H  0.38723218  0.91909659  0.41181840     0.08070
N659        N  0.98417962  0.79187257  0.44240662    -0.26320
N660        N  0.96408669  0.80418252  0.42883470    -0.34180
C661        C  0.96655667  0.83154222  0.43171889     0.02020
C662        C  0.98942465  0.83686954  0.44761197     0.08050
C663        C  0.00032960  0.81135072  0.45394855    -0.05050
H664        H  0.95330983  0.84649289  0.42197292     0.08710
H665        H  0.01867852  0.80727467  0.46585713     0.09910
Cu666      Cu  0.93571866  0.78460252  0.40408777     0.44170
Cu667      Cu  0.98850747  0.74914986  0.44405928     0.41990
Cu668      Cu  0.94518254  0.71356056  0.39357329     0.43880
N669        N  0.91283474  0.76248487  0.37605262    -0.33710
N670        N  0.91709640  0.73610648  0.37130242    -0.27960
C671        C  0.90016195  0.72759671  0.35112279    -0.04060
C672        C  0.88438873  0.74977253  0.34303956     0.08160
C673        C  0.89288713  0.77155375  0.35926211     0.01950
H674        H  0.89921738  0.70680224  0.34319123     0.09600
H675        H  0.88551618  0.79252137  0.35860385     0.08680
N676        N  0.97118437  0.69408170  0.42075359    -0.35150
N677        N  0.98627176  0.70640184  0.43985961    -0.27330
C678        C  0.99863909  0.68691336  0.45522756    -0.02570
C679        C  0.99117670  0.66140721  0.44480250     0.06040
C680        C  0.97378114  0.66672653  0.42314038     0.04130
H681        H  0.01171155  0.69097743  0.47280516     0.09240
H682        H  0.96292694  0.65176565  0.41063979     0.08070
N683        N  0.74764421  0.06035713  0.44341851    -0.26320
N684        N  0.73546422  0.07190471  0.42204938    -0.34180
C685        C  0.70816203  0.06963243  0.42486569     0.02020
C686        C  0.70220728  0.05673446  0.44967263     0.08050
C687        C  0.72805919  0.05092201  0.46070263    -0.05050
H688        H  0.69396821  0.07742545  0.40972317     0.08710
H689        H  0.73252897  0.04142044  0.48026536     0.09910
Cu690      Cu  0.75457864  0.09489081  0.39149026     0.44170
Cu691      Cu  0.79049563  0.05852466  0.44780636     0.41990
Cu692      Cu  0.82548748  0.10281551  0.39829063     0.43880
N693        N  0.77644584  0.12360993  0.36857204    -0.33710
N694        N  0.80305763  0.12734836  0.37238272    -0.27960
C695        C  0.81186475  0.14824920  0.35659184    -0.04060
C696        C  0.78968527  0.15798797  0.34183153     0.08160
C697        C  0.76751243  0.14188720  0.34981846     0.01950
H698        H  0.83291801  0.15546459  0.35561648     0.09600
H699        H  0.74643023  0.14365800  0.34292161     0.08680
N700        N  0.84515577  0.07552132  0.42371771    -0.35150
N701        N  0.83325300  0.05992723  0.44258134    -0.27330
C702        C  0.85299439  0.04556961  0.45578567    -0.02570
C703        C  0.87815403  0.05244385  0.44424044     0.06040
C704        C  0.87233819  0.07127335  0.42398872     0.04130
H705        H  0.84929930  0.03094845  0.47214009     0.09240
H706        H  0.88687984  0.08147726  0.41058836     0.08070
N707        N  0.10023517  0.29176729  0.44204019    -0.26320
N708        N  0.11412686  0.30450173  0.42236019    -0.34180
C709        C  0.11024770  0.33173122  0.42441921     0.02020
C710        C  0.09337283  0.33671117  0.44650071     0.08050
C711        C  0.08752737  0.31099169  0.45749768    -0.05050
H712        H  0.11982483  0.34693522  0.41126787     0.08710
H713        H  0.07498968  0.30660563  0.47530528     0.09910
Cu714      Cu  0.14001015  0.28641735  0.39402419     0.44170
Cu715      Cu  0.09888864  0.24870961  0.44631740     0.41990
Cu716      Cu  0.14407945  0.21519005  0.39669056     0.43880
N717        N  0.16718012  0.26491203  0.36956406    -0.33710
N718        N  0.16928792  0.23792724  0.37142130    -0.27960
C719        C  0.18928870  0.22920732  0.35459318    -0.04060
C720        C  0.20003649  0.25188236  0.34119941     0.08160
C721        C  0.18550956  0.27422518  0.35107223     0.01950
H722        H  0.19525297  0.20793466  0.35202772     0.09600
H723        H  0.18836304  0.29563282  0.34560719     0.08680
N724        N  0.11885060  0.19448641  0.42361025    -0.35150
N725        N  0.10248522  0.20581340  0.44204040    -0.27330
C726        C  0.08999675  0.18540316  0.45625562    -0.02570
C727        C  0.09932134  0.16021856  0.44633437     0.06040
C728        C  0.11730771  0.16703013  0.42550746     0.04130
H729        H  0.07558887  0.18865941  0.47281639     0.09240
H730        H  0.12841651  0.15307609  0.41230475     0.08070
O731        O  0.07813169  0.99657895  0.47489095    -0.71970
O732        O  0.00145651  0.02003041  0.49018518    -0.72950
O733        O  0.03324830  0.95675568  0.49000294    -0.61570
O734        O  0.07182199  0.03027026  0.48392760    -0.69980
O735        O  0.05114978  0.04024133  0.44385177    -0.69540
O736        O  0.03292217  0.96126673  0.44384172    -0.60790
O737        O  0.00335244  0.01007629  0.44597162    -0.73300
O738        O  0.08045729  0.99291500  0.43127170    -0.72080
Cu739      Cu  0.04375327  0.00512600  0.51452697     1.04560
Cu740      Cu  0.04202561  0.00117815  0.44216359     1.04330
C741        C  0.09281243  0.99246893  0.45372794     0.94220
C742        C  0.99024252  0.01905916  0.46633042     0.93360
C743        C  0.02968294  0.94691497  0.46557306     0.85510
C744        C  0.06609547  0.04757958  0.46401546     0.91780
N745        N  0.77949072  0.20667338  0.28615823    -0.26320
N746        N  0.80210898  0.21695453  0.29734983    -0.34180
C747        C  0.80923856  0.20123810  0.31896514     0.02020
C748        C  0.78990563  0.18040849  0.32161373     0.08050
C749        C  0.77131214  0.18452829  0.30057008    -0.05050
H750        H  0.82706659  0.20480126  0.33185239     0.08710
H751        H  0.75355379  0.17195793  0.29561317     0.09910
Cu752      Cu  0.82173521  0.25213521  0.28275409     0.44170
Cu753      Cu  0.76156921  0.22206387  0.25097466     0.41990
Cu754      Cu  0.79206404  0.28284353  0.22116985     0.43880
N755        N  0.83728813  0.28718725  0.26368887    -0.33710
N756        N  0.82709975  0.29762714  0.24072721    -0.27960
C757        C  0.84267640  0.31919404  0.23296670    -0.04060
C758        C  0.86335438  0.32277607  0.25218562     0.08160
C759        C  0.85929220  0.30223775  0.27144038     0.01950
H760        H  0.83899181  0.33155071  0.21484905     0.09600
H761        H  0.87175457  0.29813917  0.28941440     0.08680
N762        N  0.75720870  0.26365369  0.20550694    -0.35150
N763        N  0.74685598  0.24071982  0.21589796    -0.27330
C764        C  0.72529652  0.23257444  0.20058310    -0.02570
C765        C  0.72164193  0.25154112  0.17982532     0.06040
C766        C  0.74209889  0.27106519  0.18354917     0.04130
H767        H  0.71292354  0.21445627  0.20459750     0.09240
H768        H  0.74601856  0.28902173  0.17098747     0.08070
N769        N  0.75839201  0.79711234  0.26154940    -0.26320
N770        N  0.74809785  0.78682714  0.23854170    -0.34180
C771        C  0.72635912  0.80192291  0.23073968     0.02020
C772        C  0.72260507  0.82243980  0.24998175     0.08050
C773        C  0.74316346  0.81877738  0.26929111    -0.05050
H774        H  0.71397699  0.79794970  0.21265017     0.08710
H775        H  0.74702499  0.83114228  0.28740513     0.09910
Cu776      Cu  0.76329643  0.75223923  0.21931821     0.44170
Cu777      Cu  0.79310731  0.78175376  0.28081459     0.41990
Cu778      Cu  0.82335984  0.72125780  0.24995232     0.43880
N779        N  0.78219425  0.71757933  0.20394628    -0.33710
N780        N  0.80469779  0.70679855  0.21465472    -0.27960
C781        C  0.81241426  0.68518434  0.19934796    -0.04060
C782        C  0.79362105  0.68208767  0.17825339     0.08160
C783        C  0.77468316  0.70284901  0.18177260     0.01950
H784        H  0.83014195  0.67247598  0.20353481     0.09600
H785        H  0.75700023  0.70720528  0.16898660     0.08680
N786        N  0.83814671  0.73963823  0.28525831    -0.35150
N787        N  0.82770539  0.76226041  0.29604991    -0.27330
C788        C  0.84267941  0.76946740  0.31818549    -0.02570
C789        C  0.86322249  0.75021777  0.32159119     0.06040
C790        C  0.85974036  0.73155796  0.30045875     0.04130
H791        H  0.83865456  0.78717742  0.33102291     0.09240
H792        H  0.87219529  0.71368400  0.29615437     0.08070
N793        N  0.32564933  0.73953147  0.20374457    -0.26320
N794        N  0.33645970  0.76207876  0.21462959    -0.34180
C795        C  0.35853471  0.76967647  0.19980323     0.02020
C796        C  0.36198982  0.75074546  0.17888570     0.08050
C797        C  0.34086969  0.73187322  0.18203449    -0.05050
H798        H  0.37140641  0.78735757  0.20426426     0.08710
H799        H  0.33665103  0.71407656  0.16929888     0.09910
Cu800      Cu  0.32140331  0.78073548  0.24984082     0.44170
Cu801      Cu  0.29029229  0.72059298  0.21841767     0.41990
Cu802      Cu  0.26012875  0.75014155  0.27952356     0.43880
N803        N  0.30221485  0.79559467  0.28483422    -0.33710
N804        N  0.27922546  0.78513129  0.29495184    -0.27960
C805        C  0.27134902  0.80029797  0.31665698    -0.04060
C806        C  0.29055499  0.82097236  0.32062174     0.08160
C807        C  0.30989955  0.81734339  0.30020298     0.01950
H808        H  0.25322843  0.79628371  0.32888594     0.09600
H809        H  0.32792688  0.82990280  0.29643322     0.08680
N810        N  0.24504091  0.71508025  0.26030028    -0.35150
N811        N  0.25536296  0.70496393  0.23732247    -0.27330
C812        C  0.24037659  0.68292372  0.22959230    -0.02570
C813        C  0.21999160  0.67873224  0.24890027     0.06040
C814        C  0.22358009  0.69940239  0.26812717     0.04130
H815        H  0.24443939  0.67050165  0.21161105     0.09240
H816        H  0.21131686  0.70300319  0.28627667     0.08070
N817        N  0.27943711  0.70462447  0.78607471    -0.26320
N818        N  0.30240273  0.71493963  0.79650983    -0.34180
C819        C  0.31017064  0.69954522  0.81808463     0.02020
C820        C  0.29088717  0.67890170  0.82156565     0.08050
C821        C  0.27164165  0.68273638  0.80105458    -0.05050
H822        H  0.32832276  0.70330587  0.83045580     0.08710
H823        H  0.25367711  0.67017695  0.79687775     0.09910
Cu824      Cu  0.32172722  0.74978594  0.78154094     0.44170
Cu825      Cu  0.26049576  0.71958424  0.75115386     0.41990
Cu826      Cu  0.29181196  0.77937831  0.72033650     0.43880
N827        N  0.33699505  0.78448509  0.76224634    -0.33710
N828        N  0.32665107  0.79457049  0.73923234    -0.27960
C829        C  0.34185155  0.81624560  0.73122020    -0.04060
C830        C  0.36244582  0.82018181  0.75037390     0.08160
C831        C  0.35877757  0.79983103  0.76984136     0.01950
H832        H  0.33786148  0.82849386  0.71309294     0.09600
H833        H  0.37123688  0.79614795  0.78790909     0.08680
N834        N  0.25680237  0.76066894  0.70525231    -0.35150
N835        N  0.24580786  0.73818664  0.71594505    -0.27330
C836        C  0.22394565  0.73060841  0.70073660    -0.02570
C837        C  0.22093980  0.74951062  0.67976976     0.06040
C838        C  0.24199785  0.76833396  0.68325359     0.04130
H839        H  0.21098368  0.71295034  0.70493039     0.09240
H840        H  0.24649157  0.78606526  0.67056344     0.08070
N841        N  0.25922699  0.29684996  0.76052034    -0.26320
N842        N  0.24907596  0.28643056  0.73749759    -0.34180
C843        C  0.22729565  0.30141705  0.72954304     0.02020
C844        C  0.22326289  0.32194528  0.74873179     0.08050
C845        C  0.24375685  0.31842072  0.76816427    -0.05050
H846        H  0.21491778  0.29722912  0.71149765     0.08710
H847        H  0.24738168  0.33081177  0.78630831     0.09910
Cu848      Cu  0.26411126  0.25136781  0.71876180     0.44170
Cu849      Cu  0.29418859  0.28170515  0.77983768     0.41990
Cu850      Cu  0.32440743  0.22063423  0.74921447     0.43880
N851        N  0.28205934  0.21574690  0.70410411    -0.33710
N852        N  0.30473787  0.20504379  0.71454953    -0.27960
C853        C  0.31156619  0.18265627  0.69982660    -0.04060
C854        C  0.29196693  0.17890737  0.67948873     0.08160
C855        C  0.27353018  0.20017576  0.68283720     0.01950
H856        H  0.32917241  0.16976828  0.70397585     0.09600
H857        H  0.25545783  0.20427633  0.67051896     0.08680
N858        N  0.33970728  0.23982130  0.78426450    -0.35150
N859        N  0.32931832  0.26260207  0.79482733    -0.27330
C860        C  0.34460081  0.27025664  0.81665582    -0.02570
C861        C  0.36528142  0.25113630  0.82023325     0.06040
C862        C  0.36152013  0.23208714  0.79942842     0.04130
H863        H  0.34063959  0.28814522  0.82926418     0.09240
H864        H  0.37395411  0.21414674  0.79534157     0.08070
N865        N  0.82719202  0.23934607  0.70374558    -0.26320
N866        N  0.83768690  0.26230961  0.71405216    -0.34180
C867        C  0.85919087  0.27024204  0.69863022     0.02020
C868        C  0.86264124  0.25109062  0.67795763     0.08050
C869        C  0.84213008  0.23171348  0.68183622    -0.05050
H870        H  0.87172853  0.28828616  0.70255849     0.08710
H871        H  0.83808677  0.21364355  0.66943247     0.09910
Cu872      Cu  0.82334505  0.28118522  0.74932608     0.44170
Cu873      Cu  0.79251775  0.22000750  0.71928704     0.41990
Cu874      Cu  0.76370862  0.25040282  0.78062506     0.43880
N875        N  0.80522101  0.29608375  0.78472639    -0.33710
N876        N  0.78267477  0.28532062  0.79543640    -0.27960
C877        C  0.77521751  0.30016960  0.81741990    -0.04060
C878        C  0.79425521  0.32101408  0.82094092     0.08160
C879        C  0.81307916  0.31784100  0.79998249     0.01950
H880        H  0.75750248  0.29580869  0.83011621     0.09600
H881        H  0.83084153  0.33064833  0.79581173     0.08680
N882        N  0.74846884  0.21532122  0.76238813    -0.35150
N883        N  0.75812071  0.20484514  0.73929020    -0.27330
C884        C  0.74250004  0.18312771  0.73204076    -0.02570
C885        C  0.72250717  0.17963810  0.75185213     0.06040
C886        C  0.72689455  0.20025233  0.77083539     0.04130
H887        H  0.74565349  0.17067744  0.71389129     0.09240
H888        H  0.71486613  0.20450394  0.78900231     0.08070
N889        N  0.75752772  0.73626555  0.79655690    -0.26320
N890        N  0.74669190  0.75857367  0.78550376    -0.34180
C891        C  0.72537528  0.76689580  0.80080864     0.02020
C892        C  0.72239856  0.74870307  0.82233953     0.08050
C893        C  0.74299765  0.72945053  0.81904032    -0.05050
H894        H  0.71273645  0.78459800  0.79628146     0.08710
H895        H  0.74735764  0.71204669  0.83218597     0.09910
Cu896      Cu  0.76053185  0.77618348  0.74975248     0.44170
Cu897      Cu  0.79217220  0.71711280  0.78088132     0.41990
Cu898      Cu  0.82161382  0.74783942  0.71920488     0.43880
N899        N  0.77799446  0.79123522  0.71445754    -0.33710
N900        N  0.80117320  0.78192994  0.70392251    -0.27960
C901        C  0.80810038  0.79773824  0.68233484    -0.04060
C902        C  0.78794504  0.81743697  0.67900717     0.08160
C903        C  0.76915144  0.81270742  0.69958299     0.01950
H904        H  0.82634272  0.79503173  0.66997589     0.09600
H905        H  0.75097538  0.82461532  0.70410824     0.08680
N906        N  0.83710551  0.71305108  0.73832580    -0.35150
N907        N  0.82699818  0.70244991  0.76123235    -0.27330
C908        C  0.84245163  0.68082408  0.76876966    -0.02570
C909        C  0.86294008  0.67744236  0.74945310     0.06040
C910        C  0.85890625  0.69812177  0.73039992     0.04130
H911        H  0.83878224  0.66827378  0.78676070     0.09240
H912        H  0.87117623  0.70232890  0.71236295     0.08070
N913        N  0.24805175  0.26311992  0.28516689    -0.26320
N914        N  0.25800441  0.24011051  0.29567095    -0.34180
C915        C  0.24243859  0.23256612  0.31722147     0.02020
C916        C  0.22206328  0.25201514  0.32063810     0.08050
C917        C  0.22627632  0.27114536  0.30007711    -0.05050
H918        H  0.24584557  0.21439584  0.32959469     0.08710
H919        H  0.21399536  0.28915557  0.29578114     0.09910
Cu920      Cu  0.29262384  0.22033904  0.28060107     0.44170
Cu921      Cu  0.26336738  0.28173432  0.25012583     0.41990
Cu922      Cu  0.32374071  0.25072428  0.22023627     0.43880
N923        N  0.32723170  0.20455954  0.26137639    -0.33710
N924        N  0.33798322  0.21521279  0.23880696    -0.27960
C925        C  0.35924803  0.19961646  0.23074025    -0.04060
C926        C  0.36224603  0.17834887  0.24933462     0.08160
C927        C  0.34171412  0.18213900  0.26855449     0.01950
H928        H  0.37176075  0.20366701  0.21283594     0.09600
H929        H  0.33729210  0.16928471  0.28615936     0.08680
N930        N  0.30524649  0.28576469  0.20486696    -0.35150
N931        N  0.28251040  0.29641632  0.21511099    -0.27330
C932        C  0.27501030  0.31809460  0.19971188    -0.02570
C933        C  0.29422487  0.32144390  0.17911871     0.06040
C934        C  0.31315749  0.30070969  0.18300543     0.04130
H935        H  0.25716723  0.33073025  0.20352782     0.09240
H936        H  0.33106429  0.29646420  0.17059622     0.08070
C937        C  0.05679303  0.09771963  0.46601597     0.24570
C938        C  0.07606805  0.07635609  0.46412995    -0.23540
C939        C  0.10317577  0.08290884  0.45702863     0.19470
C940        C  0.11104256  0.11031122  0.45268021     0.24510
C941        C  0.09174235  0.13180685  0.45484548    -0.23490
C942        C  0.06460570  0.12522604  0.46224816     0.19410
F943        F  0.04506389  0.14503926  0.46351228    -0.13440
F944        F  0.02980591  0.09165867  0.46890398    -0.15810
F945        F  0.13745732  0.11562243  0.44543083    -0.15810
F946        F  0.12134834  0.06275593  0.45135126    -0.13440
C947        C  0.94540041  0.04119094  0.48172865     0.24570
C948        C  0.96119940  0.02785031  0.46138407    -0.23540
C949        C  0.94837971  0.02157621  0.43592704     0.19470
C950        C  0.92114581  0.02887611  0.43089209     0.24510
C951        C  0.90578887  0.04231875  0.45106693    -0.23490
C952        C  0.91792054  0.04824294  0.47656443     0.19410
F953        F  0.90322933  0.06125558  0.49631656    -0.13440
F954        F  0.95561855  0.04524852  0.50737231    -0.15810
F955        F  0.90959645  0.02248943  0.40622648    -0.15810
F956        F  0.96185278  0.00775098  0.41581417    -0.13440
C957        C  0.99431699  0.91037442  0.47228810     0.24570
C958        C  0.02023603  0.91825715  0.46231200    -0.23540
C959        C  0.03590972  0.89915347  0.44745407     0.19470
C960        C  0.02655199  0.87211563  0.44401776     0.24510
C961        C  0.00064113  0.86429483  0.45396416    -0.23490
C962        C  0.98437558  0.88370215  0.46771092     0.19410
F963        F  0.95872397  0.87688120  0.47637251    -0.13440
F964        F  0.97795252  0.92897272  0.48496621    -0.15810
F965        F  0.04211748  0.85398718  0.42969561    -0.15810
F966        F  0.06014371  0.90671213  0.43602977    -0.13440
C967        C  0.14354592  0.99676277  0.46515771     0.24570
C968        C  0.12089108  0.98127185  0.45587115    -0.23540
C969        C  0.12505404  0.95381980  0.44823499     0.19470
C970        C  0.15141330  0.94272932  0.44737187     0.24510
C971        C  0.17466596  0.95932608  0.45278558    -0.23490
C972        C  0.17035114  0.98623583  0.46287166     0.19410
F973        F  0.19187305  0.00283477  0.46946869    -0.13440
F974        F  0.13993182  0.02214710  0.47590933    -0.15810
F975        F  0.15395890  0.91562207  0.44115110    -0.15810
F976        F  0.10335585  0.93757062  0.44154068    -0.13440
C977        C  0.64324680  0.03031984  0.49533365     0.24570
C978        C  0.62045261  0.04381585  0.48386244    -0.23540
C979        C  0.62509349  0.06235510  0.46207438     0.19470
C980        C  0.65142097  0.06703618  0.45188966     0.24510
C981        C  0.67423820  0.05230117  0.46201905    -0.23490
C982        C  0.66971222  0.03387681  0.48410708     0.19410
F983        F  0.69069338  0.01909563  0.49491348    -0.13440
F984        F  0.64017738  0.01456328  0.51806236    -0.15810
F985        F  0.65416537  0.08683286  0.43246376    -0.15810
F986        F  0.60402067  0.07633265  0.45025082    -0.13440
C987        C  0.44086927  0.01203935  0.53052552     0.24570
C988        C  0.46151203  0.03217108  0.53372965    -0.23540
C989        C  0.45438806  0.05769028  0.54543790     0.19470
C990        C  0.42730934  0.06371618  0.55190177     0.24510
C991        C  0.40635898  0.04404929  0.54798479    -0.23490
C992        C  0.41337847  0.01807420  0.53719837     0.19410
F993        F  0.39377388  0.99847155  0.53338951    -0.13440
F994        F  0.44712858  0.98674642  0.52081716    -0.15810
F995        F  0.42162736  0.08950720  0.56096179    -0.15810
F996        F  0.47377946  0.07734407  0.55036239    -0.13440
C997        C  0.49340407  0.06597464  0.38578190     0.24570
C998        C  0.50036131  0.04861625  0.36373732    -0.23540
C999        C  0.51684223  0.02549640  0.36919370     0.19470
C1000       C  0.52562935  0.01972274  0.39610647     0.24510
C1001       C  0.51814144  0.03667682  0.41824496    -0.23490
C1002       C  0.50171678  0.05991621  0.41251219     0.19410
F1003       F  0.49321966  0.07705621  0.43282245    -0.13440
F1004       F  0.47903817  0.08949685  0.38165190    -0.15810
F1005       F  0.54174674  0.99771960  0.40027199    -0.15810
F1006       F  0.52407254  0.00807604  0.34866590    -0.13440
C1007       C  0.55734570  0.03162006  0.60038944     0.24570
C1008       C  0.57501822  0.03666627  0.57825095    -0.23540
C1009       C  0.60161324  0.04649748  0.58343109     0.19470
C1010       C  0.61032276  0.05130976  0.61052246     0.24510
C1011       C  0.59260537  0.04590174  0.63296085    -0.23490
C1012       C  0.56622240  0.03529336  0.62748256     0.19410
F1013       F  0.54822651  0.03025955  0.64815291    -0.13440
F1014       F  0.53079153  0.02479326  0.59567272    -0.15810
F1015       F  0.63599892  0.06158107  0.61462264    -0.15810
F1016       F  0.61850940  0.05306759  0.56223782    -0.13440
C1017       C  0.14153814  0.00145711  0.53721042     0.24570
C1018       C  0.11921906  0.01950733  0.54007771    -0.23540
C1019       C  0.12442550  0.04738352  0.54562652     0.19470
C1020       C  0.15120180  0.05696807  0.54952086     0.24510
C1021       C  0.17364967  0.03880998  0.54831194    -0.23490
C1022       C  0.16860706  0.01100820  0.54139795     0.19410
F1023       F  0.18963430  0.99282947  0.53985822    -0.13440
F1024       F  0.13708892  0.97447077  0.53137636    -0.15810
F1025       F  0.15506373  0.08428649  0.55410483    -0.15810
F1026       F  0.10345096  0.06564136  0.54674915    -0.13440
C1027       C  0.08246012  0.87928658  0.52483640     0.24570
C1028       C  0.08853316  0.87061095  0.55168924    -0.23540
C1029       C  0.08781068  0.88996742  0.57319827     0.19470
C1030       C  0.08031082  0.91720023  0.56810117     0.24510
C1031       C  0.07394852  0.92592661  0.54127716    -0.23490
C1032       C  0.07620276  0.90694190  0.51958801     0.19410
F1033       F  0.07218761  0.91500981  0.49333821    -0.13440
F1034       F  0.08324990  0.86118027  0.50359625    -0.15810
F1035       F  0.07956365  0.93516471  0.58948114    -0.15810
F1036       F  0.09358831  0.88236335  0.59942934    -0.13440
C1037       C  0.03706066  0.09864823  0.55431922     0.24570
C1038       C  0.02276359  0.08483700  0.53320273    -0.23540
C1039       C  0.00126459  0.09837295  0.51954199     0.19470
C1040       C  0.99346005  0.12478288  0.52757437     0.24510
C1041       C  0.00742722  0.13819655  0.54896067    -0.23490
C1042       C  0.02975418  0.12539188  0.56180892     0.19410
F1043       F  0.04336894  0.13815048  0.58266353    -0.13440
F1044       F  0.05711312  0.08566333  0.56868960    -0.15810
F1045       F  0.97156594  0.13689051  0.51523116    -0.15810
F1046       F  0.98686248  0.08561276  0.49938209    -0.13440
C1047       C  0.95701645  0.94354077  0.55584658     0.24570
C1048       C  0.96139803  0.96358914  0.53570182    -0.23540
C1049       C  0.93909452  0.97279930  0.52028984     0.19470
C1050       C  0.91228971  0.96582354  0.52750203     0.24510
C1051       C  0.90731711  0.94676017  0.54873257    -0.23490
C1052       C  0.93036331  0.93436703  0.56161175     0.19410
F1053       F  0.92757190  0.91347053  0.57983616    -0.13440
F1054       F  0.97861661  0.93272700  0.56983859    -0.15810
F1055       F  0.89155717  0.97887718  0.51427790    -0.15810
F1056       F  0.94316059  0.98936425  0.49867205    -0.13440
C1057       C  0.47686214  0.02728755  0.08971948     0.24570
C1058       C  0.50250011  0.03012172  0.07658249    -0.23540
C1059       C  0.52514385  0.04001498  0.09195082     0.19470
C1060       C  0.52202993  0.04688111  0.11981014     0.24510
C1061       C  0.49616066  0.04471686  0.13236725    -0.23490
C1062       C  0.47378558  0.03456609  0.11718678     0.19410
F1063       F  0.44866683  0.03184933  0.12901573    -0.13440
F1064       F  0.45435138  0.01805453  0.07588287    -0.15810
F1065       F  0.54394956  0.05665281  0.13419365    -0.15810
F1066       F  0.55023458  0.04304314  0.08017514    -0.13440
C1067       C  0.49536528  0.94042786  0.88695682     0.24570
C1068       C  0.49743684  0.95792386  0.86402738    -0.23540
C1069       C  0.50612310  0.98539746  0.86790700     0.19470
C1070       C  0.51232109  0.99510558  0.89434634     0.24510
C1071       C  0.50999164  0.97746337  0.91699572    -0.23490
C1072       C  0.50064196  0.95041933  0.91314587     0.19410
F1073       F  0.49574673  0.93379050  0.93507952    -0.13440
F1074       F  0.48799470  0.91357734  0.88426928    -0.15810
F1075       F  0.51790115  0.02218418  0.89806822    -0.15810
F1076       F  0.50680827  0.00332128  0.84653050    -0.13440
C1077       C  0.49201989  0.12927607  0.99131808     0.24570
C1078       C  0.49200471  0.13460006  0.96282842    -0.23540
C1079       C  0.49511119  0.11225244  0.94466805     0.19470
C1080       C  0.49837542  0.08547487  0.95465845     0.24510
C1081       C  0.49978257  0.08023633  0.98301976    -0.23490
C1082       C  0.49518590  0.10221751  0.00129543     0.19410
F1083       F  0.49156587  0.09728158  0.02849764    -0.13440
F1084       F  0.48723562  0.14995361  0.00941859    -0.15810
F1085       F  0.49909013  0.06430133  0.93645910    -0.15810
F1086       F  0.49495625  0.11622351  0.91704713    -0.13440
C1087       C  0.52477150  0.87411766  0.04071799     0.24570
C1088       C  0.49780659  0.86390888  0.04345984    -0.23540
C1089       C  0.47566194  0.88146274  0.03817796     0.19470
C1090       C  0.48012907  0.90876394  0.03088343     0.24510
C1091       C  0.50709563  0.91957921  0.02851963    -0.23490
C1092       C  0.52940673  0.90190832  0.03372914     0.19410
F1093       F  0.55556646  0.91145305  0.03228535    -0.13440
F1094       F  0.54652519  0.85747002  0.04576123    -0.15810
F1095       F  0.45761867  0.92464672  0.02647858    -0.15810
F1096       F  0.44935488  0.87210366  0.03992297    -0.13440
C1097       C  0.56923223  0.04895906  0.91083722     0.24570
C1098       C  0.58535423  0.02819622  0.92282307    -0.23540
C1099       C  0.60443012  0.01416370  0.90606128     0.19470
C1100       C  0.60724656  0.02084263  0.87825141     0.24510
C1101       C  0.59082266  0.04125633  0.86638755    -0.23490
C1102       C  0.57171765  0.05519231  0.88280089     0.19410
F1103       F  0.55593713  0.07535850  0.87176708    -0.13440
F1104       F  0.55154240  0.06372998  0.92631662    -0.15810
F1105       F  0.62687881  0.00813168  0.86312853    -0.15810
F1106       F  0.62078847  0.99415263  0.91655414    -0.13440
C1107       C  0.60796907  0.97371906  0.12415784     0.24570
C1108       C  0.58623712  0.96231891  0.13922677    -0.23540
C1109       C  0.55959576  0.96235582  0.12794910     0.19470
C1110       C  0.55511347  0.97206568  0.10109129     0.24510
C1111       C  0.57723320  0.98226891  0.08542372    -0.23490
C1112       C  0.60351687  0.98390494  0.09777154     0.19410
F1113       F  0.62532594  0.99465954  0.08400285    -0.13440
F1114       F  0.63379360  0.97452627  0.13485241    -0.15810
F1115       F  0.52962901  0.96977138  0.08988760    -0.15810
F1116       F  0.53833196  0.95124905  0.14220302    -0.13440
C1117       C  0.60060223  0.87430140  0.97970622     0.24570
C1118       C  0.58627217  0.86427253  0.95681510    -0.23540
C1119       C  0.56797619  0.88149493  0.94272576     0.19470
C1120       C  0.56441880  0.90880136  0.95117200     0.24510
C1121       C  0.57898576  0.91915851  0.97385061    -0.23490
C1122       C  0.59710529  0.90149613  0.98813467     0.19410
F1123       F  0.61177376  0.91061120  0.01016636    -0.13440
F1124       F  0.61899893  0.85813496  0.99309355    -0.15810
F1125       F  0.54851564  0.92565486  0.93593829    -0.15810
F1126       F  0.55427473  0.87205563  0.92025606    -0.13440
C1127       C  0.61847036  0.11943819  0.02428367     0.24570
C1128       C  0.59651178  0.13505738  0.03448157    -0.23540
C1129       C  0.57005736  0.12363245  0.03456570     0.19470
C1130       C  0.56581923  0.09663922  0.02549870     0.24510
C1131       C  0.58731782  0.08119810  0.01412265    -0.23490
C1132       C  0.61387988  0.09290302  0.01384328     0.19410
F1133       F  0.63563260  0.07819829  0.00457269    -0.13440
F1134       F  0.64445465  0.12974900  0.02487120    -0.15810
F1135       F  0.54176056  0.08449026  0.03162060    -0.15810
F1136       F  0.54878603  0.13762221  0.04587311    -0.13440
C1137       C  0.53198789  0.40468791  0.95854491     0.24570
C1138       C  0.51154012  0.42495157  0.96146378    -0.23540
C1139       C  0.48401918  0.41667886  0.96351733     0.19470
C1140       C  0.47681324  0.38885837  0.96086505     0.24510
C1141       C  0.49707567  0.36865080  0.95660037    -0.23490
C1142       C  0.52485605  0.37672130  0.95648549     0.19410
F1143       F  0.54495271  0.35784384  0.95253260    -0.13440
F1144       F  0.55890721  0.41208651  0.95718912    -0.15810
F1145       F  0.44981557  0.38172539  0.96168748    -0.15810
F1146       F  0.46389975  0.43564162  0.96613875    -0.13440
C1147       C  0.57376671  0.59837780  0.98712991     0.24570
C1148       C  0.57233113  0.57988305  0.96481794    -0.23540
C1149       C  0.57971474  0.58949012  0.93839077     0.19470
C1150       C  0.58782540  0.61655222  0.93435389     0.24510
C1151       C  0.58942962  0.63490673  0.95650029    -0.23490
C1152       C  0.58196202  0.62584318  0.98289203     0.19410
F1153       F  0.58336525  0.64332590  0.00461471    -0.13440
F1154       F  0.56734536  0.59001130  0.01292867    -0.15810
F1155       F  0.59366576  0.62491417  0.90836094    -0.15810
F1156       F  0.57927018  0.57277975  0.91598191    -0.13440
C1157       C  0.41379115  0.51739204  0.96489817     0.24570
C1158       C  0.40923737  0.54294220  0.95191087    -0.23540
C1159       C  0.43217908  0.55941754  0.94505399     0.19470
C1160       C  0.45872708  0.54976566  0.94903593     0.24510
C1161       C  0.46319852  0.52401071  0.96107742    -0.23490
C1162       C  0.44061082  0.50819100  0.96968654     0.19410
F1163       F  0.44436880  0.48312535  0.98118372    -0.13440
F1164       F  0.39254286  0.50063039  0.97185315    -0.15810
F1165       F  0.48023460  0.56574465  0.94099621    -0.15810
F1166       F  0.42925647  0.58512796  0.93463591    -0.13440
C1167       C  0.65664054  0.43174728  0.96964547     0.24570
C1168       C  0.67505802  0.44972444  0.95629988    -0.23540
C1169       C  0.66584531  0.47541187  0.94738216     0.19470
C1170       C  0.63853261  0.48284152  0.95115939     0.24510
C1171       C  0.62016810  0.46559104  0.96582161    -0.23490
C1172       C  0.62945855  0.43985698  0.97488328     0.19410
F1173       F  0.61184774  0.42191471  0.98694846    -0.13440
F1174       F  0.66495936  0.40624063  0.97726967    -0.15810
F1175       F  0.63018335  0.50742698  0.94078098    -0.15810
F1176       F  0.68294463  0.49281323  0.93370124    -0.13440
C1177       C  0.16303944  0.56771070  0.96752646     0.24570
C1178       C  0.17997993  0.54538397  0.96119345    -0.23540
C1179       C  0.17044868  0.51846065  0.96566138     0.19470
C1180       C  0.14354161  0.51393682  0.97487883     0.24510
C1181       C  0.12606111  0.53633760  0.98023419    -0.23490
C1182       C  0.13654262  0.56331910  0.97720545     0.19410
F1183       F  0.12104262  0.58573395  0.98311770    -0.13440
F1184       F  0.17212362  0.59397918  0.96415363    -0.15810
F1185       F  0.13438842  0.48771723  0.97755612    -0.15810
F1186       F  0.18660637  0.49659291  0.95958796    -0.13440
C1187       C  0.09613717  0.54740061  0.11169905     0.24570
C1188       C  0.07767538  0.55138254  0.13352894    -0.23540
C1189       C  0.04928743  0.55210408  0.12774939     0.19470
C1190       C  0.03971893  0.54929291  0.10055715     0.24510
C1191       C  0.05832277  0.54458792  0.07899078    -0.23490
C1192       C  0.08654170  0.54449982  0.08481408     0.19410
F1193       F  0.10501209  0.54236546  0.06418847    -0.13440
F1194       F  0.12365522  0.54628176  0.11631569    -0.15810
F1195       F  0.01253718  0.55257085  0.09515175    -0.15810
F1196       F  0.03096937  0.55701654  0.14812982    -0.13440
C1197       C  0.98136082  0.52930008  0.88166393     0.24570
C1198       C  0.00016119  0.54147315  0.86339326    -0.23540
C1199       C  0.02723752  0.54646863  0.87207045     0.19470
C1200       C  0.03480586  0.54117543  0.89926537     0.24510
C1201       C  0.01557524  0.53030972  0.91799384    -0.23490
C1202       C  0.98916482  0.52334269  0.90871245     0.19410
F1203       F  0.97048126  0.51232621  0.92612009    -0.13440
F1204       F  0.95519695  0.52389397  0.87345129    -0.15810
F1205       F  0.06069544  0.54766266  0.90769927    -0.15810
F1206       F  0.04572322  0.55840528  0.85487752    -0.13440
C1207       C  0.95502082  0.56845869  0.03405225     0.24570
C1208       C  0.96584678  0.54171582  0.03233921    -0.23540
C1209       C  0.94886829  0.51909788  0.03891977     0.19470
C1210       C  0.92111448  0.52314830  0.04538750     0.24510
C1211       C  0.91049286  0.54990388  0.04694028    -0.23490
C1212       C  0.92773173  0.57248769  0.04147148     0.19410
F1213       F  0.91800002  0.59860775  0.04293943    -0.13440
F1214       F  0.97099168  0.59088975  0.02897923    -0.15810
F1215       F  0.90484397  0.50106508  0.05090218    -0.15810
F1216       F  0.95886444  0.49309123  0.03854765    -0.13440
C1217       C  0.91372726  0.48128284  0.96697866     0.24570
C1218       C  0.90362914  0.45420956  0.96498552    -0.23540
C1219       C  0.92015315  0.43235419  0.97382123     0.19470
C1220       C  0.94695217  0.43718375  0.98279287     0.24510
C1221       C  0.95812049  0.46405255  0.98271437    -0.23490
C1222       C  0.94081811  0.48621502  0.97582263     0.19410
F1223       F  0.95041416  0.51246789  0.97627043    -0.13440
F1224       F  0.89803660  0.50273862  0.95858990    -0.15810
F1225       F  0.96213533  0.41528377  0.99107859    -0.15810
F1226       F  0.91045821  0.40608447  0.97332304    -0.13440
C1227       C  0.01042889  0.47121339  0.12389816     0.24570
C1228       C  0.01035304  0.44446865  0.13464167    -0.23540
C1229       C  0.01945615  0.42269553  0.11794884     0.19470
C1230       C  0.02918055  0.42777887  0.09124870     0.24510
C1231       C  0.02920997  0.45467193  0.08034981    -0.23490
C1232       C  0.01874404  0.47596562  0.09677935     0.19410
F1233       F  0.01300696  0.50054293  0.08558017    -0.13440
F1234       F  0.00008943  0.49240102  0.13879968    -0.15810
F1235       F  0.03773685  0.40623422  0.07574395    -0.15810
F1236       F  0.01867022  0.39642394  0.12742371    -0.13440
C1237       C  0.10745196  0.45892734  0.88567650     0.24570
C1238       C  0.08756893  0.45645310  0.86469528    -0.23540
C1239       C  0.05984895  0.46158785  0.87095944     0.19470
C1240       C  0.05208824  0.46735600  0.89802612     0.24510
C1241       C  0.07191371  0.46875957  0.91906015    -0.23490
C1242       C  0.09962591  0.46481795  0.91262572     0.19410
F1243       F  0.11891623  0.46449907  0.93271456    -0.13440
F1244       F  0.13449937  0.45488813  0.88030405    -0.15810
F1245       F  0.02497404  0.46968850  0.90407668    -0.15810
F1246       F  0.04001055  0.45889640  0.85144904    -0.13440
C1247       C  0.15830167  0.42729764  0.04024758     0.24570
C1248       C  0.17627594  0.44968182  0.04453414    -0.23540
C1249       C  0.16585622  0.47650484  0.04267536     0.19470
C1250       C  0.13786328  0.48080833  0.03705171     0.24510
C1251       C  0.11997744  0.45844808  0.03204086    -0.23490
C1252       C  0.13061544  0.43160338  0.03392146     0.19410
F1253       F  0.11414664  0.40932048  0.02977738    -0.13440
F1254       F  0.16768533  0.40105113  0.04166649    -0.15810
F1255       F  0.12870591  0.50692118  0.03508155    -0.15810
F1256       F  0.18261617  0.49853534  0.04688570    -0.13440
C1257       C  0.45858171  0.44050416  0.03695814     0.24570
C1258       C  0.46762183  0.46786872  0.03832469    -0.23540
C1259       C  0.44791434  0.48884710  0.04176383     0.19470
C1260       C  0.41986881  0.48242158  0.04458574     0.24510
C1261       C  0.41109722  0.45482412  0.04481636    -0.23490
C1262       C  0.43071001  0.43401340  0.04034446     0.19410
F1263       F  0.42297476  0.40713049  0.03996028    -0.13440
F1264       F  0.47683817  0.41981514  0.03431508    -0.15810
F1265       F  0.40162968  0.50305739  0.04878664    -0.15810
F1266       F  0.45592166  0.51566457  0.04261777    -0.13440
C1267       C  0.49721586  0.62240246  0.01790085     0.24570
C1268       C  0.49150856  0.63107659  0.04489642    -0.23540
C1269       C  0.49227747  0.61162798  0.06622338     0.19470
C1270       C  0.49842289  0.58420655  0.06085605     0.24510
C1271       C  0.50466762  0.57531283  0.03400365    -0.23490
C1272       C  0.50347392  0.59463606  0.01243195     0.19410
F1273       F  0.50961197  0.58703384  0.98636182    -0.13440
F1274       F  0.49657936  0.64071922  0.99686325    -0.15810
F1275       F  0.49898568  0.56639415  0.08237488    -0.15810
F1276       F  0.48818426  0.61935356  0.09272804    -0.13440
C1277       C  0.64317720  0.52695547  0.01842320     0.24570
C1278       C  0.62363662  0.52723383  0.03958035    -0.23540
C1279       C  0.63218586  0.53612224  0.06599253     0.19470
C1280       C  0.65930919  0.54387222  0.07095121     0.24510
C1281       C  0.67884452  0.54311141  0.04981689    -0.23490
C1282       C  0.67070188  0.53415195  0.02357183     0.19410
F1283       F  0.68909346  0.53343339  0.00267073    -0.13440
F1284       F  0.63548433  0.52057413  0.99261448    -0.15810
F1285       F  0.66649427  0.55179193  0.09678666    -0.15810
F1286       F  0.61430165  0.53784231  0.08732042    -0.13440
C1287       C  0.54960113  0.39653324  0.03170684     0.24570
C1288       C  0.56683701  0.41914278  0.03718386    -0.23540
C1289       C  0.59425049  0.41455229  0.04457676     0.19470
C1290       C  0.60405667  0.38780097  0.04756352     0.24510
C1291       C  0.58616988  0.36500816  0.04475221    -0.23490
C1292       C  0.55893491  0.36965527  0.03605954     0.19410
F1293       F  0.54087517  0.34848124  0.03308998    -0.13440
F1294       F  0.52337143  0.40040285  0.02337885    -0.15810
F1295       F  0.63119849  0.38434753  0.05298763    -0.15810
F1296       F  0.61180778  0.43610060  0.04814082    -0.13440
C1297       C  0.98532566  0.40174870  0.50962352     0.24570
C1298       C  0.00984998  0.41555470  0.51671760    -0.23540
C1299       C  0.02990412  0.40168077  0.53222740     0.19470
C1300       C  0.02457338  0.37513717  0.54213204     0.24510
C1301       C  0.99915222  0.36243399  0.53675018    -0.23490
C1302       C  0.97992979  0.37549713  0.51980306     0.19410
F1303       F  0.95557552  0.36308734  0.51375474    -0.13440
F1304       F  0.96610263  0.41411299  0.49358982    -0.15810
F1305       F  0.04331401  0.36267122  0.55862037    -0.15810
F1306       F  0.05357014  0.41455903  0.53969640    -0.13440
C1307       C  0.98548053  0.59647352  0.48639003     0.24570
C1308       C  0.00259810  0.57840356  0.47155544    -0.23540
C1309       C  0.01746995  0.58872558  0.44897414     0.19470
C1310       C  0.01447806  0.61617874  0.44086641     0.24510
C1311       C  0.99732199  0.63392517  0.45563965    -0.23490
C1312       C  0.98318975  0.62406439  0.47867048     0.19410
F1313       F  0.96638810  0.64095115  0.49311467    -0.13440
F1314       F  0.97144430  0.58766466  0.50884311    -0.15810
F1315       F  0.02800692  0.62540801  0.41828882    -0.15810
F1316       F  0.03429670  0.57217956  0.43421858    -0.13440
C1317       C  0.00091379  0.45663161  0.41447823     0.24570
C1318       C  0.00425594  0.48495947  0.41921472    -0.23540
C1319       C  0.00471958  0.50300867  0.39666506     0.19470
C1320       C  0.00070219  0.49284169  0.36980647     0.24510
C1321       C  0.99644621  0.46443270  0.36518948    -0.23490
C1322       C  0.99751068  0.44644166  0.38786594     0.19410
F1323       F  0.99527807  0.41878561  0.38439797    -0.13440
F1324       F  0.00086823  0.43864979  0.43586856    -0.15810
F1325       F  0.99946822  0.51092846  0.34860944    -0.15810
F1326       F  0.00752190  0.53050592  0.40073812    -0.13440
C1327       C  0.99337219  0.51135026  0.59877903     0.24570
C1328       C  0.01022556  0.52664774  0.58070062    -0.23540
C1329       C  0.02457559  0.54966883  0.59091964     0.19470
C1330       C  0.02035169  0.55848436  0.61803263     0.24510
C1331       C  0.00239688  0.54396869  0.63538678    -0.23490
C1332       C  0.98955182  0.51995181  0.62585815     0.19410
F1333       F  0.97223445  0.50555195  0.64239722    -0.13440
F1334       F  0.98023168  0.48814630  0.59014934    -0.15810
F1335       F  0.03315904  0.58162655  0.62718630    -0.15810
F1336       F  0.04155238  0.56438042  0.57439362    -0.13440
C1337       C  0.44812000  0.93661686  0.47300455     0.24570
C1338       C  0.46216020  0.96202802  0.46963935    -0.23540
C1339       C  0.44758708  0.98444923  0.45844367     0.19470
C1340       C  0.41980355  0.98140236  0.45087122     0.24510
C1341       C  0.40637799  0.95595856  0.45415617    -0.23490
C1342       C  0.42071202  0.93376892  0.46539407     0.19410
F1343       F  0.40807482  0.90901541  0.46893767    -0.13440
F1344       F  0.46067902  0.91414445  0.48381107    -0.15810
F1345       F  0.40626318  0.00296113  0.43952128    -0.15810
F1346       F  0.46007863  0.00921719  0.45484715    -0.13440
C1347       C  0.62641443  0.95665580  0.54517567     0.24570
C1348       C  0.62169618  0.95852854  0.51676832    -0.23540
C1349       C  0.64411961  0.95739813  0.49869047     0.19470
C1350       C  0.67087127  0.95345153  0.50897916     0.24510
C1351       C  0.67540402  0.95046700  0.53747169    -0.23490
C1352       C  0.65291424  0.95292153  0.55543316     0.19410
F1353       F  0.65649362  0.95171285  0.58309426    -0.13440
F1354       F  0.60515128  0.95840334  0.56312774    -0.15810
F1355       F  0.69201377  0.95111395  0.49101668    -0.15810
F1356       F  0.64001035  0.95894253  0.47116307    -0.13440
C1357       C  0.55725620  0.94063180  0.40435967     0.24570
C1358       C  0.57256445  0.95693718  0.42297783    -0.23540
C1359       C  0.59593599  0.97120613  0.41345494     0.19470
C1360       C  0.60418153  0.96854326  0.38606524     0.24510
C1361       C  0.58873372  0.95240890  0.36768033    -0.23490
C1362       C  0.56509377  0.93874922  0.37687352     0.19410
F1363       F  0.55001028  0.92293925  0.35936853    -0.13440
F1364       F  0.53398342  0.92741315  0.41244963    -0.15810
F1365       F  0.62717507  0.98183735  0.37736949    -0.15810
F1366       F  0.61082248  0.98764959  0.43051928    -0.13440
C1367       C  0.49882401  0.97760887  0.59363247     0.24570
C1368       C  0.52196557  0.96390309  0.58332495    -0.23540
C1369       C  0.53521124  0.94413685  0.59968335     0.19470
C1370       C  0.52578569  0.93860811  0.62620751     0.24510
C1371       C  0.50286683  0.95257724  0.63648274    -0.23490
C1372       C  0.48949895  0.97218179  0.62019469     0.19410
F1373       F  0.46694435  0.98542241  0.62976800    -0.13440
F1374       F  0.48465761  0.99547284  0.57764838    -0.15810
F1375       F  0.53809686  0.91866391  0.64134831    -0.15810
F1376       F  0.55656703  0.92943690  0.58951399    -0.13440
C1377       C  0.05888924  0.60194135  0.52377518     0.24570
C1378       C  0.08114707  0.58399937  0.51933129    -0.23540
C1379       C  0.10806832  0.59416492  0.52377849     0.19470
C1380       C  0.11244219  0.62095903  0.53311593     0.24510
C1381       C  0.09021791  0.63867276  0.53765925    -0.23490
C1382       C  0.06342801  0.62921066  0.53229655     0.19410
F1383       F  0.04155929  0.64577102  0.53707575    -0.13440
F1384       F  0.03270205  0.59266484  0.52185457    -0.15810
F1385       F  0.13863746  0.62954843  0.53790828    -0.15810
F1386       F  0.13045317  0.57803864  0.51985340    -0.13440
C1387       C  0.09368926  0.40133807  0.48931532     0.24570
C1388       C  0.08113962  0.42030780  0.47131234    -0.23540
C1389       C  0.06989659  0.41062384  0.44648550     0.19470
C1390       C  0.07270136  0.38293517  0.43903143     0.24510
C1391       C  0.08594962  0.36428677  0.45665916    -0.23490
C1392       C  0.09570234  0.37350379  0.48220277     0.19410
F1393       F  0.10873795  0.35592413  0.49951376    -0.13440
F1394       F  0.10435597  0.40978686  0.51374553    -0.15810
F1395       F  0.06309242  0.37439354  0.41421637    -0.15810
F1396       F  0.05757177  0.42814571  0.42871587    -0.13440
C1397       C  0.07860674  0.51150629  0.37011188     0.24570
C1398       C  0.08958024  0.53815257  0.36587430    -0.23540
C1399       C  0.09524136  0.55456462  0.38914907     0.19470
C1400       C  0.09204005  0.54407931  0.41562380     0.24510
C1401       C  0.08244145  0.51708914  0.41989665    -0.23490
C1402       C  0.07500498  0.50112947  0.39691473     0.19410
F1403       F  0.06556389  0.47507175  0.40025564    -0.13440
F1404       F  0.07247770  0.49496739  0.34845727    -0.15810
F1405       F  0.09826554  0.56062667  0.43731904    -0.15810
F1406       F  0.10367695  0.58110151  0.38655373    -0.13440
C1407       C  0.10017029  0.48388181  0.59683292     0.24570
C1408       C  0.07738290  0.47464433  0.58114746    -0.23540
C1409       C  0.05696785  0.45875779  0.59424229     0.19470
C1410       C  0.06061814  0.45028696  0.62161573     0.24510
C1411       C  0.08444979  0.45786686  0.63617763    -0.23490
C1412       C  0.10371384  0.47534658  0.62390059     0.19410
F1413       F  0.12646331  0.48360781  0.63797994    -0.13440
F1414       F  0.11938566  0.50108384  0.58598153    -0.15810
F1415       F  0.04161402  0.43360607  0.63348544    -0.15810
F1416       F  0.03410774  0.45056300  0.58039973    -0.13440
loop_ 
_geom_bond_atom_site_label_1 
_geom_bond_atom_site_label_2 
_geom_bond_distance 
_geom_bond_site_symmetry_2 
_ccdc_geom_bond_type 
O1           Cu9   1.993       .  S
O1           C11   1.267       .  A
O2           Cu9   1.955       .  S
O2           C12   1.267       .  A
O3           Cu9   1.898       .  S
O3           C13   1.255       .  A
O4           Cu9   1.964       .  S
O4           C14   1.258       .  A
O5          Cu10   2.528       .  S
O5           C14   1.312       .  A
O6          Cu10   2.456       .  S
O6           C13   1.282       .  A
O7          Cu10   2.759       .  S
O7           C12   1.287       .  A
O8          Cu10   2.437       .  S
O8           C11   1.333       .  A
Cu9         Cu10   3.443       .  S
C11        C1388   1.482       .  S
C12        C1378   1.492       .  S
C13        C1408   1.486       .  S
C14        C1401   1.486       .  S
O15         Cu23   1.939       .  S
O15          C25   1.263       .  A
O16         Cu23   1.983       .  S
O16          C26   1.266       .  A
O17         Cu23   1.957       .  S
O17          C27   1.257       .  A
O18         Cu23   1.888       .  S
O18          C28   1.255       .  A
O19         Cu24   2.444   1_565  S
O19          C28   1.286       .  A
O20         Cu24   2.567   1_565  S
O20          C27   1.309       .  A
O21         Cu24   2.420   1_565  S
O21          C26   1.331       .  A
O22         Cu24   2.704   1_565  S
O22          C25   1.287       .  A
Cu23        Cu24   3.460   1_565  S
C25        C1368   1.466       .  S
C26        C1358   1.476       .  S
C27        C1348   1.474       .  S
C28        C1338   1.491       .  S
O29         Cu37   1.992       .  S
O29          C39   1.266   1_655  A
O30         Cu37   1.941       .  S
O30          C40   1.263   1_655  A
O31         Cu37   1.909       .  S
O31          C41   1.258   1_655  A
O32         Cu37   1.974       .  S
O32          C42   1.261   1_655  A
O33         Cu38   2.560       .  S
O33          C42   1.316       .  A
O34         Cu38   2.443       .  S
O34          C41   1.285       .  A
O35         Cu38   2.711       .  S
O35          C40   1.281       .  A
O36         Cu38   2.430       .  S
O36          C39   1.329       .  A
Cu37        Cu38   3.445   1_655  S
C39        C1308   1.482       .  S
C40        C1298   1.472       .  S
C41        C1328   1.481       .  S
C42        C1318   1.479       .  S
O43         Cu51   2.674   1_554  S
O43          C53   1.292       .  A
O44         Cu51   2.470   1_554  S
O44          C54   1.286       .  A
O45         Cu51   2.425   1_554  S
O45          C55   1.322       .  A
O46         Cu51   2.623   1_554  S
O46          C56   1.300       .  A
O47         Cu52   1.944       .  S
O47          C56   1.273       .  A
O48         Cu52   2.005       .  S
O48          C55   1.273       .  A
O49         Cu52   1.875       .  S
O49          C54   1.248       .  A
O50         Cu52   1.953       .  S
O50          C53   1.248       .  A
Cu51        Cu52   3.466   1_556  S
C53        C1258   1.485       .  S
C54        C1278   1.492       .  S
C55        C1288   1.471       .  S
C56        C1271   1.488       .  S
N57          N58   1.325       .  A
N57          C61   1.357       .  A
N57         Cu65   2.125       .  S
N58          C59   1.339       .  A
N58         Cu64   2.063       .  S
C59          C60   1.377       .  A
C59          H62   1.082       .  S
C60        C1261   1.488       .  S
C60          C61   1.396       .  A
C61          H63   1.082       .  S
Cu64         N67   2.062       .  S
Cu65         N75   2.124       .  S
Cu66         N68   2.049       .  S
Cu66         N74   2.049       .  S
N67          N68   1.317       .  A
N67          C71   1.344       .  A
N68          C69   1.343       .  A
C69          C70   1.381       .  A
C69          H72   1.082       .  S
C70         C933   1.465       .  S
C70          C71   1.384       .  A
C71          H73   1.082       .  S
N74          N75   1.324       .  A
N74          C78   1.337       .  A
N75          C76   1.356       .  A
C76          C77   1.395       .  A
C76          H79   1.082       .  S
C77        C1248   1.483       .  S
C77          C78   1.374       .  A
C78          H80   1.082       .  S
N81          N82   1.324       .  A
N81          C85   1.349       .  A
N81         Cu89   2.081       .  S
N82          C83   1.342       .  A
N82         Cu88   2.073       .  S
C83          C84   1.379       .  A
C83          H86   1.082       .  S
C84        C1411   1.469       .  S
C84          C85   1.383       .  A
C85          H87   1.082       .  S
Cu88         N91   2.072       .  S
Cu89         N99   2.081       .  S
Cu90         N92   2.064       .  S
Cu90         N98   2.065       .  S
N91          N92   1.320       .  A
N91          C95   1.345       .  A
N92          C93   1.345       .  A
C93          C94   1.382       .  A
C93          H96   1.082       .  S
C94         C844   1.469       .  S
C94          C95   1.384       .  A
C95          H97   1.082       .  S
N98          N99   1.322       .  A
N98         C102   1.340       .  A
N99         C100   1.348       .  A
C100        C101   1.388       .  A
C100        H103   1.082       .  S
C101       C1238   1.481       .  S
C101        C102   1.382       .  A
C102        H104   1.082       .  S
N105        N106   1.323       .  A
N105        C109   1.354       .  A
N105       Cu113   2.108       .  S
N106        C107   1.341       .  A
N106       Cu112   2.074       .  S
C107        C108   1.384       .  A
C107        H110   1.081       .  S
C108       C1321   1.493       .  S
C108        C109   1.393       .  A
C109        H111   1.082   1_655  S
Cu112       N115   2.072       .  S
Cu113       N123   2.108       .  S
Cu114       N116   2.068       .  S
Cu114       N122   2.070       .  S
N115        N116   1.320       .  A
N115        C119   1.346       .  A
N116        C117   1.345       .  A
C117        C118   1.383       .  A
C117        H120   1.082       .  S
C118        C758   1.470       .  S
C118        C119   1.384       .  A
C119        H121   1.082       .  S
N122        N123   1.324       .  A
N122        C126   1.344       .  A
N123        C124   1.352   1_655  A
C124        C125   1.390   1_455  A
C124        H127   1.082       .  S
C125       C1228   1.483   1_655  S
C125        C126   1.380       .  A
C126        H128   1.082       .  S
O129       Cu137   1.980   1_554  S
O129        C139   1.260       .  A
O130       Cu137   1.919       .  S
O130        C140   1.254       .  A
O131       Cu137   1.990   1_554  S
O131        C141   1.270       .  A
O132       Cu137   1.944       .  S
O132        C142   1.266   1_455  A
O133       Cu138   2.721   1_656  S
O133        C142   1.287       .  A
O134       Cu138   2.441       .  S
O134        C141   1.333       .  A
O135       Cu138   2.438   1_556  S
O135        C140   1.280       .  A
O136       Cu138   2.586       .  S
O136        C139   1.314       .  A
Cu137      Cu138   3.432   1_556  S
C139       C1231   1.494       .  S
C140       C1241   1.468       .  S
C141       C1251   1.490       .  S
C142       C1221   1.486       .  S
N143        N144   1.323       .  A
N143        C147   1.351       .  A
N143       Cu151   2.092       .  S
N144        C145   1.336       .  A
N144       Cu150   2.048       .  S
C145        C146   1.374       .  A
C145        H148   1.082       .  S
C146       C1211   1.470       .  S
C146        C147   1.388       .  A
C147        H149   1.082       .  S
Cu150       N153   2.048       .  S
Cu151       N161   2.092       .  S
Cu152       N154   2.055       .  S
Cu152       N160   2.056       .  S
N153        N154   1.317       .  A
N153        C157   1.342       .  A
N154        C155   1.343       .  A
C155        C156   1.382       .  A
C155        H158   1.082       .  S
C156        C782   1.462       .  S
C156        C157   1.381       .  A
C157        H159   1.082       .  S
N160        N161   1.324       .  A
N160        C164   1.337       .  A
N161        C162   1.351       .  A
C162        C163   1.389       .  A
C162        H165   1.082       .  S
C163       C1281   1.477       .  S
C163        C164   1.378       .  A
C164        H166   1.082       .  S
N167        N168   1.324       .  A
N167        C171   1.348   1_655  A
N167       Cu175   2.080       .  S
N168        C169   1.343       .  A
N168       Cu174   2.073       .  S
C169        C170   1.379       .  A
C169        H172   1.082       .  S
C170       C1331   1.469   1_655  S
C170        C171   1.383   1_655  A
C171        H173   1.082       .  S
Cu174       N177   2.072       .  S
Cu175       N185   2.079       .  S
Cu176       N178   2.068       .  S
Cu176       N184   2.068       .  S
N177        N178   1.321       .  A
N177        C181   1.345       .  A
N178        C179   1.345       .  A
C179        C180   1.382       .  A
C179        H182   1.082       .  S
C180        C909   1.469       .  S
C180        C181   1.383       .  A
C181        H183   1.082       .  S
N184        N185   1.323       .  A
N184        C188   1.342       .  A
N185        C186   1.348   1_655  A
C186        C187   1.384   1_455  A
C186        H189   1.082       .  S
C187       C1198   1.472   1_655  S
C187        C188   1.380       .  A
C188        H190   1.082       .  S
N191        N192   1.323       .  A
N191        C195   1.353       .  A
N191       Cu199   2.106       .  S
N192        C193   1.340       .  A
N192       Cu198   2.072       .  S
C193        C194   1.386       .  A
C193        H196   1.081       .  S
C194       C1398   1.497       .  S
C194        C195   1.395       .  A
C195        H197   1.081       .  S
Cu198       N201   2.070       .  S
Cu199       N209   2.106       .  S
Cu200       N202   2.065       .  S
Cu200       N208   2.066       .  S
N201        N202   1.319       .  A
N201        C205   1.345       .  A
N202        C203   1.345       .  A
C203        C204   1.383       .  A
C203        H206   1.082       .  S
C204        C813   1.469       .  S
C204        C205   1.384       .  A
C205        H207   1.082       .  S
N208        N209   1.324       .  A
N208        C212   1.340       .  A
N209        C210   1.353       .  A
C210        C211   1.392       .  A
C210        H213   1.082       .  S
C211       C1188   1.486       .  S
C211        C212   1.380       .  A
C212        H214   1.082       .  S
O215       Cu223   1.977   1_554  S
O215        C225   1.257       .  A
O216       Cu223   1.904       .  S
O216        C226   1.254       .  A
O217       Cu223   1.984   1_554  S
O217        C227   1.268   1_455  A
O218       Cu223   1.933       .  S
O218        C228   1.264       .  A
O219       Cu224   2.730   1_556  S
O219        C228   1.288       .  A
O220       Cu224   2.434       .  S
O220        C227   1.331   1_455  A
O221       Cu224   2.445   1_556  S
O221        C226   1.282       .  A
O222       Cu224   2.571       .  S
O222        C225   1.309       .  A
Cu223      Cu224   3.438   1_556  S
C225       C1191   1.481       .  S
C226       C1201   1.471       .  S
C227       C1208   1.477       .  S
C228       C1181   1.483       .  S
N229        N230   1.323       .  A
N229        C233   1.348       .  A
N229       Cu237   2.091       .  S
N230        C231   1.342       .  A
N230       Cu236   2.056       .  S
C231        C232   1.376       .  A
C231        H234   1.082       .  S
C232       C1168   1.471       .  S
C232        C233   1.387       .  A
C233        H235   1.082       .  S
Cu236       N239   2.055       .  S
Cu237       N247   2.090       .  S
Cu238       N240   2.062       .  S
Cu238       N246   2.065       .  S
N239        N240   1.319       .  A
N239        C243   1.342       .  A
N240        C241   1.345       .  A
C241        C242   1.382       .  A
C241        H244   1.082       .  S
C242        C878   1.463       .  S
C242        C243   1.380       .  A
C243        H245   1.082       .  S
N246        N247   1.324       .  A
N246        C250   1.340       .  A
N247        C248   1.350       .  A
C248        C249   1.386       .  A
C248        H251   1.082       .  S
C249       C1218   1.475       .  S
C249        C250   1.379       .  A
C250        H252   1.082       .  S
N253        N254   1.324       .  A
N253        C257   1.347       .  A
N253       Cu261   2.074       .  S
N254        C255   1.338       .  A
N254       Cu260   2.062       .  S
C255        C256   1.378       .  A
C255        H258   1.082       .  S
C256       C1178   1.467       .  S
C256        C257   1.382       .  A
C257        H259   1.082       .  S
Cu260       N263   2.060       .  S
Cu261       N271   2.073       .  S
Cu262       N264   2.052       .  S
Cu262       N270   2.052       .  S
N263        N264   1.318       .  A
N263        C267   1.343       .  A
N264        C265   1.343       .  A
C265        C266   1.381       .  A
C265        H268   1.082       .  S
C266        C820   1.463       .  S
C266        C267   1.382       .  A
C267        H269   1.082       .  S
N270        N271   1.320       .  A
N270        C274   1.335       .  A
N271        C272   1.347       .  A
C272        C273   1.391       .  A
C272        H275   1.081       .  S
C273       C1158   1.485       .  S
C273        C274   1.384       .  A
C274        H276   1.080       .  S
O277       Cu285   1.925       .  S
O277        C287   1.269       .  A
O278       Cu285   1.980       .  S
O278        C288   1.268       .  A
O279       Cu285   1.885       .  S
O279        C289   1.252       .  A
O280       Cu285   1.961       .  S
O280        C290   1.249       .  A
O281       Cu286   2.640   1_556  S
O281        C290   1.288       .  A
O282       Cu286   2.452   1_556  S
O282        C289   1.281       .  A
O283       Cu286   2.436   1_556  S
O283        C288   1.326       .  A
O284       Cu286   2.647   1_556  S
O284        C287   1.304       .  A
Cu285      Cu286   3.479   1_556  S
C287       C1171   1.482       .  S
C288       C1161   1.468       .  S
C289       C1148   1.486       .  S
C290       C1138   1.480       .  S
N291        N292   1.321       .  A
N291        C295   1.350       .  A
N291       Cu299   2.090       .  S
N292        C293   1.337       .  A
N292       Cu298   2.054       .  S
C293        C294   1.382       .  A
C293        H296   1.081       .  S
C294       C1291   1.485       .  S
C294        C295   1.393       .  A
C295        H297   1.081       .  S
Cu298       N301   2.054       .  S
Cu299       N309   2.091       .  S
Cu300       N302   2.067       .  S
Cu300       N308   2.068       .  S
N301        N302   1.319       .  A
N301        C305   1.344       .  A
N302        C303   1.344       .  A
C303        C304   1.383       .  A
C303        H306   1.082       .  S
C304        C765   1.465       .  S
C304        C305   1.381       .  A
C305        H307   1.082       .  S
N308        N309   1.324       .  A
N308        C312   1.343       .  A
N309        C310   1.349       .  A
C310        C311   1.385       .  A
C310        H313   1.082       .  S
C311       C1128   1.474       .  S
C311        C312   1.379       .  A
C312        H314   1.082       .  S
N315        N316   1.322       .  A
N315        C319   1.350       .  A
N315       Cu323   2.076       .  S
N316        C317   1.336       .  A
N316       Cu322   2.054       .  S
C317        C318   1.379       .  A
C317        H320   1.082       .  S
C318       C1151   1.473       .  S
C318        C319   1.386       .  A
C319        H321   1.082       .  S
Cu322       N325   2.053       .  S
Cu323       N333   2.078       .  S
Cu324       N326   2.067       .  S
Cu324       N332   2.069       .  S
N325        N326   1.319       .  A
N325        C329   1.343       .  A
N326        C327   1.344       .  A
C327        C328   1.384       .  A
C327        H330   1.082       .  S
C328        C892   1.465       .  S
C328        C329   1.380       .  A
C329        H331   1.082       .  S
N332        N333   1.325       .  A
N332        C336   1.342       .  A
N333        C334   1.347       .  A
C334        C335   1.381       .  A
C334        H337   1.082       .  S
C335       C1118   1.465       .  S
C335        C336   1.377       .  A
C336        H338   1.082       .  S
N339        N340   1.324       .  A
N339        C343   1.350       .  A
N339       Cu347   2.086       .  S
N340        C341   1.342       .  A
N340       Cu346   2.074       .  S
C341        C342   1.381       .  A
C341        H344   1.082       .  S
C342       C1108   1.475       .  S
C342        C343   1.385       .  A
C343        H345   1.082       .  S
Cu346       N349   2.072       .  S
Cu347       N357   2.086       .  S
Cu348       N350   2.055       .  S
Cu348       N356   2.055       .  S
N349        N350   1.320       .  A
N349        C353   1.345       .  A
N350        C351   1.343       .  A
C351        C352   1.380       .  A
C351        H354   1.082       .  S
C352        C772   1.466       .  S
C352        C353   1.384       .  A
C353        H355   1.082       .  S
N356        N357   1.323       .  A
N356        C360   1.340       .  A
N357        C358   1.348       .  A
C358        C359   1.385       .  A
C358        H361   1.082       .  S
C359       C1361   1.466       .  S
C359        C360   1.375       .  A
C360        H362   1.082       .  S
O363       Cu371   1.893   1_556  S
O363        C373   1.253       .  A
O364       Cu371   1.958   1_545  S
O364        C374   1.256       .  A
O365       Cu371   1.932       .  S
O365        C375   1.264       .  A
O366       Cu371   1.981   1_546  S
O366        C376   1.267       .  A
O367       Cu372   2.430       .  S
O367        C376   1.332       .  A
O368       Cu372   2.717   1_564  S
O368        C375   1.289       .  A
O369       Cu372   2.585       .  S
O369        C374   1.314   1_556  A
O370       Cu372   2.450   1_565  S
O370        C373   1.287       .  A
Cu371      Cu372   3.458   1_564  S
C373       C1121   1.481       .  S
C374       C1131   1.487       .  S
C375       C1111   1.486       .  S
C376       C1098   1.490       .  S
N377        N378   1.325       .  A
N377        C381   1.353       .  A
N377       Cu385   2.104       .  S
N378        C379   1.339       .  A
N378       Cu384   2.067       .  S
C379        C380   1.378       .  A
C379        H382   1.082       .  S
C380       C1088   1.479       .  S
C380        C381   1.389       .  A
C381        H383   1.082       .  S
Cu384       N387   2.066       .  S
Cu385       N395   2.104       .  S
Cu386       N388   2.063       .  S
Cu386       N394   2.063       .  S
N387        N388   1.318       .  A
N387        C391   1.346       .  A
N388        C389   1.344       .  A
C389        C390   1.383       .  A
C389        H392   1.082       .  S
C390        C796   1.470       .  S
C390        C391   1.384       .  A
C391        H393   1.082       .  S
N394        N395   1.324       .  A
N394        C398   1.338       .  A
N395        C396   1.354       .  A
C396        C397   1.392       .  A
C396        H399   1.082       .  S
C397       C1268   1.484       .  S
C397        C398   1.379       .  A
C398        H400   1.082       .  S
N401        N402   1.324       .  A
N401        C405   1.355       .  A
N401       Cu409   2.117       .  S
N402        C403   1.340       .  A
N402       Cu408   2.063       .  S
C403        C404   1.378       .  A
C403        H406   1.082       .  S
C404       C1141   1.486       .  S
C404        C405   1.394       .  A
C405        H407   1.082       .  S
Cu408       N411   2.063       .  S
Cu409       N419   2.118       .  S
Cu410       N412   2.074       .  S
Cu410       N418   2.076       .  S
N411        N412   1.319       .  A
N411        C415   1.345       .  A
N412        C413   1.346       .  A
C413        C414   1.385       .  A
C413        H416   1.082       .  S
C414        C861   1.471       .  S
C414        C415   1.383       .  A
C415        H417   1.082       .  S
N418        N419   1.325       .  A
N418        C422   1.343       .  A
N419        C420   1.355       .  A
C420        C421   1.394       .  A
C420        H423   1.082       .  S
C421       C1078   1.494       .  S
C421        C422   1.383       .  A
C422        H424   1.082       .  S
N425        N426   1.320       .  A
N425        C429   1.346       .  A
N425       Cu433   2.066       .  S
N426        C427   1.336       .  A
N426       Cu432   2.053       .  S
C427        C428   1.382       .  A
C427        H430   1.081       .  S
C428       C1068   1.476       .  S
C428        C429   1.386       .  A
C429        H431   1.082       .  S
Cu432       N435   2.052       .  S
Cu433       N443   2.067       .  S
Cu434       N436   2.063       .  S
Cu434       N442   2.064       .  S
N435        N436   1.320       .  A
N435        C439   1.342       .  A
N436        C437   1.343       .  A
C437        C438   1.382       .  A
C437        H440   1.082       .  S
C438        C830   1.461       .  S
C438        C439   1.380       .  A
C439        H441   1.082       .  S
N442        N443   1.324       .  A
N442        C446   1.342       .  A
N443        C444   1.345       .  A
C444        C445   1.379       .  A
C444        H447   1.082       .  S
C445       C1371   1.461       .  S
C445        C446   1.377       .  A
C446        H448   1.082       .  S
O449       Cu457   2.463   1_565  S
O449        C459   1.286       .  A
O450       Cu457   2.594       .  S
O450        C460   1.312   1_554  A
O451       Cu457   2.412       .  S
O451        C461   1.330       .  A
O452       Cu457   2.719   1_566  S
O452        C462   1.287       .  A
O453       Cu458   1.920       .  S
O453        C462   1.262       .  A
O454       Cu458   1.984   1_544  S
O454        C461   1.268       .  A
O455       Cu458   1.945   1_545  S
O455        C460   1.252       .  A
O456       Cu458   1.887   1_554  S
O456        C459   1.253       .  A
Cu457      Cu458   3.463   1_544  S
C459       C1091   1.492       .  S
C460       C1081   1.488       .  S
C461       C1058   1.483       .  S
C462       C1071   1.460       .  S
N463        N464   1.324       .  A
N463        C467   1.351       .  A
N463       Cu471   2.094       .  S
N464        C465   1.340       .  A
N464       Cu470   2.072       .  S
C465        C466   1.382       .  A
C465        H468   1.082       .  S
C466       C1351   1.486       .  S
C466        C467   1.390       .  A
C467        H469   1.082       .  S
Cu470       N473   2.069       .  S
Cu471       N481   2.093       .  S
Cu472       N474   2.034       .  S
Cu472       N480   2.033       .  S
N473        N474   1.318       .  A
N473        C477   1.345       .  A
N474        C475   1.340       .  A
C475        C476   1.377       .  A
C475        H478   1.082       .  S
C476        C902   1.460       .  S
C476        C477   1.384       .  A
C477        H479   1.082       .  S
N480        N481   1.319       .  A
N480        C484   1.335       .  A
N481        C482   1.346       .  A
C482        C483   1.399       .  A
C482        H485   1.079       .  S
C483       C1051   1.493       .  S
C483        C484   1.383       .  A
C484        H486   1.078       .  S
N487        N488   1.323       .  A
N487        C491   1.345   1_655  A
N487       Cu495   2.058       .  S
N488        C489   1.342       .  A
N488       Cu494   2.073       .  S
C489        C490   1.381       .  A
C489        H492   1.082       .  S
C490       C1301   1.464       .  S
C490        C491   1.378   1_655  A
C491        H493   1.082       .  S
Cu494       N497   2.072       .  S
Cu495       N505   2.059       .  S
Cu496       N498   2.069       .  S
Cu496       N504   2.070       .  S
N497        N498   1.322       .  A
N497        C501   1.345       .  A
N498        C499   1.345       .  A
C499        C500   1.381       .  A
C499        H502   1.082       .  S
C500        C868   1.467       .  S
C500        C501   1.382       .  A
C501        H503   1.082       .  S
N504        N505   1.323       .  A
N504        C508   1.343       .  A
N505        C506   1.344   1_655  A
C506        C507   1.377   1_455  A
C506        H509   1.082       .  S
C507       C1041   1.462   1_655  S
C507        C508   1.379       .  A
C508        H510   1.082       .  S
N511        N512   1.324       .  A
N511        C515   1.352       .  A
N511       Cu519   2.100       .  S
N512        C513   1.339       .  A
N512       Cu518   2.060       .  S
C513        C514   1.378       .  A
C513        H516   1.082       .  S
C514       C1381   1.477       .  S
C514        C515   1.388       .  A
C515        H517   1.082       .  S
Cu518       N521   2.058       .  S
Cu519       N529   2.101       .  S
Cu520       N522   2.051       .  S
Cu520       N528   2.052       .  S
N521        N522   1.318       .  A
N521        C525   1.344       .  A
N522        C523   1.342       .  A
C523        C524   1.381       .  A
C523        H526   1.082       .  S
C524        C837   1.463       .  S
C524        C525   1.382       .  A
C525        H527   1.082       .  S
N528        N529   1.323       .  A
N528        C532   1.338       .  A
N529        C530   1.352       .  A
C530        C531   1.391       .  A
C530        H533   1.082       .  S
C531       C1028   1.479       .  S
C531        C532   1.377       .  A
C532        H534   1.082       .  S
O535       Cu543   1.924   1_665  S
O535        C545   1.256       .  A
O536       Cu543   1.995       .  S
O536        C546   1.260       .  A
O537       Cu543   1.943       .  S
O537        C547   1.268       .  A
O538       Cu543   1.982   1_565  S
O538        C548   1.268       .  A
O539       Cu544   2.503       .  S
O539        C548   1.325       .  A
O540       Cu544   2.611   1_545  S
O540        C547   1.291       .  A
O541       Cu544   2.718       .  S
O541        C546   1.293   1_565  A
O542       Cu544   2.400       .  S
O542        C545   1.277   1_455  A
Cu543      Cu544   3.432   1_545  S
C545       C1048   1.470       .  S
C546       C1018   1.478       .  S
C547       C1038   1.470       .  S
C548       C1031   1.482       .  S
N549        N550   1.326       .  A
N549        C553   1.354       .  A
N549       Cu557   2.116       .  S
N550        C551   1.340       .  A
N550       Cu556   2.059       .  S
C551        C552   1.373       .  A
C551        H554   1.082       .  S
C552       C1101   1.473       .  S
C552        C553   1.390       .  A
C553        H555   1.082       .  S
Cu556       N559   2.059       .  S
Cu557       N567   2.115       .  S
Cu558       N560   2.042       .  S
Cu558       N566   2.042       .  S
N559        N560   1.318       .  A
N559        C563   1.344       .  A
N560        C561   1.341       .  A
C561        C562   1.378       .  A
C561        H564   1.082       .  S
C562        C885   1.460       .  S
C562        C563   1.383       .  A
C563        H565   1.082       .  S
N566        N567   1.322       .  A
N566        C570   1.338       .  A
N567        C568   1.352       .  A
C568        C569   1.398       .  A
C568        H571   1.081       .  S
C569       C1011   1.489       .  S
C569        C570   1.378       .  A
C570        H572   1.081       .  S
N573        N574   1.323       .  A
N573        C577   1.351       .  A
N573       Cu581   2.095       .  S
N574        C575   1.339       .  A
N574       Cu580   2.066       .  S
C575        C576   1.384       .  A
C575        H578   1.081       .  S
C576        C998   1.490       .  S
C576        C577   1.392       .  A
C577        H579   1.081       .  S
Cu580       N583   2.065       .  S
Cu581       N591   2.094       .  S
Cu582       N584   2.063       .  S
Cu582       N590   2.063       .  S
N583        N584   1.319       .  A
N583        C587   1.345       .  A
N584        C585   1.345       .  A
C585        C586   1.384       .  A
C585        H588   1.082       .  S
C586        C926   1.470       .  S
C586        C587   1.383       .  A
C587        H589   1.082       .  S
N590        N591   1.324       .  A
N590        C594   1.338       .  A
N591        C592   1.352       .  A
C592        C593   1.387       .  A
C592        H595   1.082       .  S
C593       C1061   1.473       .  S
C593        C594   1.376       .  A
C594        H596   1.082       .  S
N597        N598   1.322       .  A
N597        C601   1.353       .  A
N597       Cu605   2.099       .  S
N598        C599   1.336       .  A
N598       Cu604   2.057       .  S
C599        C600   1.380       .  A
C599        H602   1.081       .  S
C600        C991   1.486       .  S
C600        C601   1.393       .  A
C601        H603   1.082       .  S
Cu604       N607   2.056       .  S
Cu605       N615   2.100       .  S
Cu606       N608   2.073       .  S
Cu606       N614   2.075       .  S
N607        N608   1.318       .  A
N607        C611   1.344       .  A
N608        C609   1.346       .  A
C609        C610   1.386       .  A
C609        H612   1.082       .  S
C610        C854   1.470       .  S
C610        C611   1.382       .  A
C611        H613   1.082       .  S
N614        N615   1.324       .  A
N614        C618   1.340       .  A
N615        C616   1.352       .  A
C616        C617   1.392       .  A
C616        H619   1.082       .  S
C617       C1021   1.490       .  S
C617        C618   1.384       .  A
C618        H620   1.081       .  S
O621       Cu629   2.443   1_545  S
O621        C631   1.333       .  A
O622       Cu629   2.739   1_545  S
O622        C632   1.295       .  A
O623       Cu629   2.590   1_545  S
O623        C633   1.310       .  A
O624       Cu629   2.469   1_545  S
O624        C634   1.284       .  A
O625       Cu630   1.878       .  S
O625        C634   1.251       .  A
O626       Cu630   1.943       .  S
O626        C633   1.253       .  A
O627       Cu630   1.941       .  S
O627        C632   1.267       .  A
O628       Cu630   1.997       .  S
O628        C631   1.267       .  A
Cu629      Cu630   3.425   1_565  S
C631       C1008   1.471       .  S
C632       C1001   1.497       .  S
C633        C978   1.493       .  S
C634        C988   1.486       .  S
N635        N636   1.322       .  A
N635        C639   1.352       .  A
N635       Cu643   2.097       .  S
N636        C637   1.339       .  A
N636       Cu642   2.070       .  S
C637        C638   1.386       .  A
C637        H640   1.081       .  S
C638        C971   1.494       .  S
C638        C639   1.394       .  A
C639        H641   1.081       .  S
Cu642       N645   2.069       .  S
Cu643       N653   2.097       .  S
Cu644       N646   2.058       .  S
Cu644       N652   2.058       .  S
N645        N646   1.318       .  A
N645        C649   1.345       .  A
N646        C647   1.344       .  A
C647        C648   1.382       .  A
C647        H650   1.082       .  S
C648        C806   1.468       .  S
C648        C649   1.384       .  A
C649        H651   1.082       .  S
N652        N653   1.324       .  A
N652        C656   1.338       .  A
N653        C654   1.352       .  A
C654        C655   1.388       .  A
C654        H657   1.082       .  S
C655       C1341   1.471       .  S
C655        C656   1.376       .  A
C656        H658   1.082       .  S
N659        N660   1.323       .  A
N659        C663   1.348   1_655  A
N659       Cu667   2.089       .  S
N660        C661   1.341       .  A
N660       Cu666   2.058       .  S
C661        C662   1.376       .  A
C661        H664   1.082       .  S
C662        C961   1.470   1_655  S
C662        C663   1.385   1_655  A
C663        H665   1.082       .  S
Cu666       N669   2.057       .  S
Cu667       N677   2.089       .  S
Cu668       N670   2.061       .  S
Cu668       N676   2.061       .  S
N669        N670   1.319       .  A
N669        C673   1.343       .  A
N670        C671   1.344       .  A
C671        C672   1.382       .  A
C671        H674   1.082       .  S
C672        C789   1.464       .  S
C672        C673   1.381       .  A
C673        H675   1.082       .  S
N676        N677   1.324       .  A
N676        C680   1.341       .  A
N677        C678   1.349       .  A
C678        C679   1.385       .  A
C678        H681   1.082   1_655  S
C679       C1311   1.467       .  S
C679        C680   1.375       .  A
C680        H682   1.082       .  S
N683        N684   1.322       .  A
N683        C687   1.351       .  A
N683       Cu691   2.097       .  S
N684        C685   1.340       .  A
N684       Cu690   2.079       .  S
C685        C686   1.391       .  A
C685        H688   1.078       .  S
C686        C981   1.504       .  S
C686        C687   1.396       .  A
C687        H689   1.080       .  S
Cu690       N693   2.077       .  S
Cu691       N701   2.097       .  S
Cu692       N694   2.051       .  S
Cu692       N700   2.052       .  S
N693        N694   1.319       .  A
N693        C697   1.346       .  A
N694        C695   1.343       .  A
C695        C696   1.380       .  A
C695        H698   1.082       .  S
C696        C748   1.468       .  S
C696        C697   1.386       .  A
C697        H699   1.082       .  S
N700        N701   1.323       .  A
N700        C704   1.339       .  A
N701        C702   1.351       .  A
C702        C703   1.388       .  A
C702        H705   1.082       .  S
C703        C951   1.471       .  S
C703        C704   1.375       .  A
C704        H706   1.082       .  S
N707        N708   1.325       .  A
N707        C711   1.352       .  A
N707       Cu715   2.103       .  S
N708        C709   1.341       .  A
N708       Cu714   2.068       .  S
C709        C710   1.376       .  A
C709        H712   1.082       .  S
C710       C1391   1.475       .  S
C710        C711   1.388       .  A
C711        H713   1.082       .  S
Cu714       N717   2.068       .  S
Cu715       N725   2.102       .  S
Cu716       N718   2.057       .  S
Cu716       N724   2.057       .  S
N717        N718   1.318       .  A
N717        C721   1.346       .  A
N718        C719   1.343       .  A
C719        C720   1.382       .  A
C719        H722   1.082       .  S
C720        C916   1.468       .  S
C720        C721   1.385       .  A
C721        H723   1.082       .  S
N724        N725   1.322       .  A
N724        C728   1.339       .  A
N725        C726   1.352       .  A
C726        C727   1.393       .  A
C726        H729   1.082       .  S
C727        C941   1.486       .  S
C727        C728   1.380       .  A
C728        H730   1.081       .  S
O731       Cu739   2.591   1_565  S
O731        C741   1.271       .  A
O732       Cu739   2.482       .  S
O732        C742   1.282   1_455  A
O733       Cu739   2.681   1_565  S
O733        C743   1.292       .  A
O734       Cu739   2.360       .  S
O734        C744   1.313       .  A
O735       Cu740   1.948       .  S
O735        C744   1.269       .  A
O736       Cu740   1.988   1_565  S
O736        C743   1.277       .  A
O737       Cu740   1.942       .  S
O737        C742   1.259   1_455  A
O738       Cu740   1.987   1_565  S
O738        C741   1.246       .  A
Cu739      Cu740   3.527       .  S
C741        C968   1.476       .  S
C742        C948   1.497       .  S
C743        C958   1.472       .  S
C744        C938   1.477       .  S
N745        N746   1.322       .  A
N745        C749   1.344       .  A
N745       Cu753   2.061       .  S
N746        C747   1.346       .  A
N746       Cu752   2.080       .  S
C747        C748   1.384       .  A
C747        H750   1.082       .  S
C748        C749   1.380       .  A
C749        H751   1.082       .  S
Cu752       N755   2.080       .  S
Cu753       N763   2.061       .  S
Cu754       N756   2.075       .  S
Cu754       N762   2.074       .  S
N755        N756   1.323       .  A
N755        C759   1.346       .  A
N756        C757   1.345       .  A
C757        C758   1.382       .  A
C757        H760   1.082       .  S
C758        C759   1.383       .  A
C759        H761   1.082       .  S
N762        N763   1.322       .  A
N762        C766   1.345       .  A
N763        C764   1.343       .  A
C764        C765   1.379       .  A
C764        H767   1.082       .  S
C765        C766   1.383       .  A
C766        H768   1.082       .  S
N769        N770   1.322       .  A
N769        C773   1.344       .  A
N769       Cu777   2.071       .  S
N770        C771   1.344       .  A
N770       Cu776   2.064       .  S
C771        C772   1.380       .  A
C771        H774   1.082       .  S
C772        C773   1.382       .  A
C773        H775   1.082       .  S
Cu776       N779   2.063       .  S
Cu777       N787   2.071       .  S
Cu778       N780   2.062       .  S
Cu778       N786   2.062       .  S
N779        N780   1.322       .  A
N779        C783   1.343       .  A
N780        C781   1.343       .  A
C781        C782   1.380       .  A
C781        H784   1.082       .  S
C782        C783   1.380       .  A
C783        H785   1.082       .  S
N786        N787   1.322       .  A
N786        C790   1.343       .  A
N787        C788   1.344       .  A
C788        C789   1.382       .  A
C788        H791   1.082       .  S
C789        C790   1.380       .  A
C790        H792   1.082       .  S
N793        N794   1.323       .  A
N793        C797   1.345       .  A
N793       Cu801   2.075       .  S
N794        C795   1.346       .  A
N794       Cu800   2.075       .  S
C795        C796   1.383       .  A
C795        H798   1.082       .  S
C796        C797   1.383       .  A
C797        H799   1.082       .  S
Cu800       N803   2.075       .  S
Cu801       N811   2.075       .  S
Cu802       N804   2.072       .  S
Cu802       N810   2.073       .  S
N803        N804   1.323       .  A
N803        C807   1.345       .  A
N804        C805   1.345       .  A
C805        C806   1.382       .  A
C805        H808   1.082       .  S
C806        C807   1.382       .  A
C807        H809   1.082       .  S
N810        N811   1.322       .  A
N810        C814   1.345       .  A
N811        C812   1.345       .  A
C812        C813   1.382       .  A
C812        H815   1.082       .  S
C813        C814   1.382       .  A
C814        H816   1.082       .  S
N817        N818   1.322       .  A
N817        C821   1.343       .  A
N817       Cu825   2.065       .  S
N818        C819   1.344       .  A
N818       Cu824   2.066       .  S
C819        C820   1.381       .  A
C819        H822   1.082       .  S
C820        C821   1.380       .  A
C821        H823   1.082       .  S
Cu824       N827   2.066       .  S
Cu825       N835   2.065       .  S
Cu826       N828   2.059       .  S
Cu826       N834   2.060       .  S
N827        N828   1.322       .  A
N827        C831   1.344       .  A
N828        C829   1.342       .  A
C829        C830   1.379       .  A
C829        H832   1.082       .  S
C830        C831   1.381       .  A
C831        H833   1.082       .  S
N834        N835   1.321       .  A
N834        C838   1.342       .  A
N835        C836   1.344       .  A
C836        C837   1.381       .  A
C836        H839   1.082       .  S
C837        C838   1.380       .  A
C838        H840   1.082       .  S
N841        N842   1.322       .  A
N841        C845   1.346       .  A
N841       Cu849   2.079       .  S
N842        C843   1.345       .  A
N842       Cu848   2.069       .  S
C843        C844   1.381       .  A
C843        H846   1.082       .  S
C844        C845   1.383       .  A
C845        H847   1.082       .  S
Cu848       N851   2.069       .  S
Cu849       N859   2.079       .  S
Cu850       N852   2.078       .  S
Cu850       N858   2.077       .  S
N851        N852   1.322       .  A
N851        C855   1.345       .  A
N852        C853   1.346       .  A
C853        C854   1.384       .  A
C853        H856   1.082       .  S
C854        C855   1.381       .  A
C855        H857   1.082       .  S
N858        N859   1.323       .  A
N858        C862   1.346       .  A
N859        C860   1.346       .  A
C860        C861   1.383       .  A
C860        H863   1.082       .  S
C861        C862   1.382       .  A
C862        H864   1.082       .  S
N865        N866   1.323       .  A
N865        C869   1.345       .  A
N865       Cu873   2.072       .  S
N866        C867   1.344       .  A
N866       Cu872   2.070       .  S
C867        C868   1.381       .  A
C867        H870   1.082       .  S
C868        C869   1.382       .  A
C869        H871   1.082       .  S
Cu872       N875   2.069       .  S
Cu873       N883   2.071       .  S
Cu874       N876   2.056       .  S
Cu874       N882   2.055       .  S
N875        N876   1.321       .  A
N875        C879   1.345       .  A
N876        C877   1.342       .  A
C877        C878   1.379       .  A
C877        H880   1.082       .  S
C878        C879   1.382       .  A
C879        H881   1.082       .  S
N882        N883   1.322       .  A
N882        C886   1.342       .  A
N883        C884   1.344       .  A
C884        C885   1.381       .  A
C884        H887   1.082       .  S
C885        C886   1.377       .  A
C886        H888   1.082       .  S
N889        N890   1.321       .  A
N889        C893   1.345       .  A
N889       Cu897   2.076       .  S
N890        C891   1.342       .  A
N890       Cu896   2.053       .  S
C891        C892   1.378       .  A
C891        H894   1.082       .  S
C892        C893   1.384       .  A
C893        H895   1.082       .  S
Cu896       N899   2.052       .  S
Cu897       N907   2.077       .  S
Cu898       N900   2.073       .  S
Cu898       N906   2.073       .  S
N899        N900   1.322       .  A
N899        C903   1.342       .  A
N900        C901   1.344       .  A
C901        C902   1.383       .  A
C901        H904   1.082       .  S
C902        C903   1.376       .  A
C903        H905   1.082       .  S
N906        N907   1.323       .  A
N906        C910   1.345       .  A
N907        C908   1.345       .  A
C908        C909   1.382       .  A
C908        H911   1.082       .  S
C909        C910   1.382       .  A
C910        H912   1.082       .  S
N913        N914   1.323       .  A
N913        C917   1.345       .  A
N913       Cu921   2.069       .  S
N914        C915   1.345       .  A
N914       Cu920   2.078       .  S
C915        C916   1.383       .  A
C915        H918   1.082       .  S
C916        C917   1.381       .  A
C917        H919   1.082       .  S
Cu920       N923   2.078       .  S
Cu921       N931   2.070       .  S
Cu922       N924   2.069       .  S
Cu922       N930   2.068       .  S
N923        N924   1.322       .  A
N923        C927   1.346       .  A
N924        C925   1.345       .  A
C925        C926   1.382       .  A
C925        H928   1.082       .  S
C926        C927   1.383       .  A
C927        H929   1.082       .  S
N930        N931   1.322       .  A
N930        C934   1.344       .  A
N931        C932   1.344       .  A
C932        C933   1.381       .  A
C932        H935   1.082       .  S
C933        C934   1.381       .  A
C934        H936   1.082       .  S
C937        C938   1.405       .  A
C937        C942   1.400       .  A
C937        F944   1.352       .  S
C938        C939   1.399       .  A
C939        C940   1.400       .  A
C939        F946   1.351       .  S
C940        C941   1.412       .  A
C940        F945   1.357       .  S
C941        C942   1.405       .  A
C942        F943   1.358       .  S
C947        C948   1.414       .  A
C947        C952   1.404       .  A
C947        F954   1.356       .  S
C948        C949   1.418       .  A
C949        C950   1.394       .  A
C949        F956   1.359       .  S
C950        C951   1.399       .  A
C950        F955   1.359       .  S
C951        C952   1.401       .  A
C952        F953   1.357       .  S
C957        C958   1.404   1_655  A
C957        C962   1.398       .  A
C957        F964   1.356       .  S
C958        C959   1.405       .  A
C959        C960   1.398       .  A
C959        F966   1.354       .  S
C960        C961   1.402       .  A
C960        F965   1.358       .  S
C961        C962   1.404   1_455  A
C962        F963   1.358       .  S
C967        C968   1.405       .  A
C967        C972   1.408       .  A
C967        F974   1.352   1_565  S
C968        C969   1.400       .  A
C969        C970   1.394       .  A
C969        F976   1.354       .  S
C970        C971   1.410       .  A
C970        F975   1.357       .  S
C971        C972   1.413       .  A
C972        F973   1.356   1_565  S
C977        C978   1.405       .  A
C977        C982   1.410       .  A
C977        F984   1.354       .  S
C978        C979   1.409       .  A
C979        C980   1.392       .  A
C979        F986   1.359       .  S
C980        C981   1.411       .  A
C980        F985   1.355       .  S
C981        C982   1.416       .  A
C982        F983   1.356       .  S
C987        C988   1.407       .  A
C987        C992   1.409       .  A
C987        F994   1.353   1_545  S
C988        C989   1.409       .  A
C989        C990   1.388       .  A
C989        F996   1.360       .  S
C990        C991   1.406       .  A
C990        F995   1.358       .  S
C991        C992   1.410       .  A
C992        F993   1.357   1_545  S
C997        C998   1.407       .  A
C997       C1002   1.393       .  A
C997       F1004   1.357       .  S
C998        C999   1.408       .  A
C999       C1000   1.405       .  A
C999       F1006   1.357       .  S
C1000      C1001   1.406       .  A
C1000      F1005   1.344   1_545  S
C1001      C1002   1.414       .  A
C1002      F1003   1.359       .  S
C1007      C1008   1.401       .  A
C1007      C1012   1.397       .  A
C1007      F1014   1.351       .  S
C1008      C1009   1.399       .  A
C1009      C1010   1.403       .  A
C1009      F1016   1.358       .  S
C1010      C1011   1.417       .  A
C1010      F1015   1.357       .  S
C1011      C1012   1.405       .  A
C1012      F1013   1.357       .  S
C1017      C1018   1.406       .  A
C1017      C1022   1.408       .  A
C1017      F1024   1.357   1_545  S
C1018      C1019   1.402       .  A
C1019      C1020   1.394       .  A
C1019      F1026   1.356       .  S
C1020      C1021   1.408       .  A
C1020      F1025   1.358       .  S
C1021      C1022   1.412       .  A
C1022      F1023   1.357   1_545  S
C1027      C1028   1.404       .  A
C1027      C1032   1.402       .  A
C1027      F1034   1.358       .  S
C1028      C1029   1.407       .  A
C1029      C1030   1.396       .  A
C1029      F1036   1.358       .  S
C1030      C1031   1.407       .  A
C1030      F1035   1.358       .  S
C1031      C1032   1.406       .  A
C1032      F1033   1.350       .  S
C1037      C1038   1.407       .  A
C1037      C1042   1.397       .  A
C1037      F1044   1.357       .  S
C1038      C1039   1.404       .  A
C1039      C1040   1.396   1_455  A
C1039      F1046   1.352   1_455  S
C1040      C1041   1.400   1_655  A
C1040      F1045   1.358       .  S
C1041      C1042   1.400       .  A
C1042      F1043   1.358       .  S
C1047      C1048   1.398       .  A
C1047      C1052   1.398       .  A
C1047      F1054   1.358       .  S
C1048      C1049   1.393       .  A
C1049      C1050   1.392       .  A
C1049      F1056   1.339       .  S
C1050      C1051   1.408       .  A
C1050      F1055   1.355       .  S
C1051      C1052   1.419       .  A
C1052      F1053   1.355       .  S
C1057      C1058   1.409       .  A
C1057      C1062   1.391       .  A
C1057      F1064   1.358       .  S
C1058      C1059   1.412       .  A
C1059      C1060   1.405       .  A
C1059      F1066   1.357       .  S
C1060      C1061   1.404       .  A
C1060      F1065   1.357       .  S
C1061      C1062   1.401       .  A
C1062      F1063   1.358       .  S
C1067      C1068   1.406       .  A
C1067      C1072   1.386       .  A
C1067      F1074   1.357       .  S
C1068      C1069   1.410       .  A
C1069      C1070   1.402       .  A
C1069      F1076   1.357   1_565  S
C1070      C1071   1.401       .  A
C1070      F1075   1.354   1_565  S
C1071      C1072   1.401       .  A
C1072      F1073   1.360       .  S
C1077      C1078   1.410       .  A
C1077      C1082   1.410   1_556  A
C1077      F1084   1.357   1_556  S
C1078      C1079   1.408       .  A
C1079      C1080   1.398       .  A
C1079      F1086   1.358       .  S
C1080      C1081   1.405       .  A
C1080      F1085   1.358       .  S
C1081      C1082   1.408   1_556  A
C1082      F1083   1.357       .  S
C1087      C1088   1.407       .  A
C1087      C1092   1.410       .  A
C1087      F1094   1.357       .  S
C1088      C1089   1.400       .  A
C1089      C1090   1.389       .  A
C1089      F1096   1.359       .  S
C1090      C1091   1.416       .  A
C1090      F1095   1.359       .  S
C1091      C1092   1.410       .  A
C1092      F1093   1.354       .  S
C1097      C1098   1.406       .  A
C1097      C1102   1.403       .  A
C1097      F1104   1.353       .  S
C1098      C1099   1.415       .  A
C1099      C1100   1.399       .  A
C1099      F1106   1.358   1_545  S
C1100      C1101   1.400       .  A
C1100      F1105   1.358       .  S
C1101      C1102   1.403       .  A
C1102      F1103   1.357       .  S
C1107      C1108   1.400       .  A
C1107      C1112   1.393       .  A
C1107      F1114   1.359       .  S
C1108      C1109   1.406       .  A
C1109      C1110   1.406       .  A
C1109      F1116   1.357       .  S
C1110      C1111   1.409       .  A
C1110      F1115   1.357       .  S
C1111      C1112   1.413       .  A
C1112      F1113   1.359       .  S
C1117      C1118   1.398       .  A
C1117      C1122   1.394       .  A
C1117      F1124   1.359       .  S
C1118      C1119   1.402       .  A
C1119      C1120   1.400       .  A
C1119      F1126   1.357       .  S
C1120      C1121   1.402       .  A
C1120      F1125   1.350       .  S
C1121      C1122   1.414       .  A
C1122      F1123   1.359   1_556  S
C1127      C1128   1.405       .  A
C1127      C1132   1.402       .  A
C1127      F1134   1.358       .  S
C1128      C1129   1.399       .  A
C1129      C1130   1.397       .  A
C1129      F1136   1.358       .  S
C1130      C1131   1.405       .  A
C1130      F1135   1.343       .  S
C1131      C1132   1.409       .  A
C1132      F1133   1.358       .  S
C1137      C1138   1.410       .  A
C1137      C1142   1.404       .  A
C1137      F1144   1.358       .  S
C1138      C1139   1.400       .  A
C1139      C1140   1.400       .  A
C1139      F1146   1.354       .  S
C1140      C1141   1.410       .  A
C1140      F1145   1.357       .  S
C1141      C1142   1.405       .  A
C1142      F1143   1.358       .  S
C1147      C1148   1.410       .  A
C1147      C1152   1.406       .  A
C1147      F1154   1.357   1_556  S
C1148      C1149   1.415       .  A
C1149      C1150   1.385       .  A
C1149      F1156   1.359       .  S
C1150      C1151   1.400       .  A
C1150      F1155   1.359       .  S
C1151      C1152   1.406       .  A
C1152      F1153   1.357   1_556  S
C1157      C1158   1.411       .  A
C1157      C1162   1.400       .  A
C1157      F1164   1.357       .  S
C1158      C1159   1.411       .  A
C1159      C1160   1.389       .  A
C1159      F1166   1.356       .  S
C1160      C1161   1.399       .  A
C1160      F1165   1.358       .  S
C1161      C1162   1.403       .  A
C1162      F1163   1.353       .  S
C1167      C1168   1.408       .  A
C1167      C1172   1.406       .  A
C1167      F1174   1.357       .  S
C1168      C1169   1.397       .  A
C1169      C1170   1.391       .  A
C1169      F1176   1.359       .  S
C1170      C1171   1.417       .  A
C1170      F1175   1.360       .  S
C1171      C1172   1.402       .  A
C1172      F1173   1.354       .  S
C1177      C1178   1.400       .  A
C1177      C1182   1.389       .  A
C1177      F1184   1.359       .  S
C1178      C1179   1.403       .  A
C1179      C1180   1.401       .  A
C1179      F1186   1.357       .  S
C1180      C1181   1.409       .  A
C1180      F1185   1.354       .  S
C1181      C1182   1.412       .  A
C1182      F1183   1.359       .  S
C1187      C1188   1.407       .  A
C1187      C1192   1.395       .  A
C1187      F1194   1.358       .  S
C1188      C1189   1.409       .  A
C1189      C1190   1.408       .  A
C1189      F1196   1.357       .  S
C1190      C1191   1.407       .  A
C1190      F1195   1.358       .  S
C1191      C1192   1.401       .  A
C1192      F1193   1.353       .  S
C1197      C1198   1.406   1_655  A
C1197      C1202   1.400       .  A
C1197      F1204   1.357       .  S
C1198      C1199   1.402       .  A
C1199      C1200   1.397       .  A
C1199      F1206   1.358       .  S
C1200      C1201   1.409       .  A
C1200      F1205   1.359       .  S
C1201      C1202   1.401   1_455  A
C1202      F1203   1.353       .  S
C1207      C1208   1.407       .  A
C1207      C1212   1.391       .  A
C1207      F1214   1.358       .  S
C1208      C1209   1.409       .  A
C1209      C1210   1.402       .  A
C1209      F1216   1.356       .  S
C1210      C1211   1.403       .  A
C1210      F1215   1.357       .  S
C1211      C1212   1.404       .  A
C1212      F1213   1.358       .  S
C1217      C1218   1.405       .  A
C1217      C1222   1.405       .  A
C1217      F1224   1.357       .  S
C1218      C1219   1.402       .  A
C1219      C1220   1.392       .  A
C1219      F1226   1.359       .  S
C1220      C1221   1.411       .  A
C1220      F1225   1.359       .  S
C1221      C1222   1.410       .  A
C1222      F1223   1.356       .  S
C1227      C1228   1.401       .  A
C1227      C1232   1.400       .  A
C1227      F1234   1.358       .  S
C1228      C1229   1.407       .  A
C1229      C1230   1.406       .  A
C1229      F1236   1.358       .  S
C1230      C1231   1.410       .  A
C1230      F1235   1.358       .  S
C1231      C1232   1.405       .  A
C1232      F1233   1.343       .  S
C1237      C1238   1.409       .  A
C1237      C1242   1.396       .  A
C1237      F1244   1.357       .  S
C1238      C1239   1.407       .  A
C1239      C1240   1.400       .  A
C1239      F1246   1.358       .  S
C1240      C1241   1.406       .  A
C1240      F1245   1.358       .  S
C1241      C1242   1.399       .  A
C1242      F1243   1.353       .  S
C1247      C1248   1.407       .  A
C1247      C1252   1.397       .  A
C1247      F1254   1.358       .  S
C1248      C1249   1.403       .  A
C1249      C1250   1.405       .  A
C1249      F1256   1.357       .  S
C1250      C1251   1.409       .  A
C1250      F1255   1.350       .  S
C1251      C1252   1.408       .  A
C1252      F1253   1.358       .  S
C1257      C1258   1.400       .  A
C1257      C1262   1.401       .  A
C1257      F1264   1.351       .  S
C1258      C1259   1.413       .  A
C1259      C1260   1.405       .  A
C1259      F1266   1.359       .  S
C1260      C1261   1.405       .  A
C1260      F1265   1.358       .  S
C1261      C1262   1.411       .  A
C1262      F1263   1.357       .  S
C1267      C1268   1.408       .  A
C1267      C1272   1.410       .  A
C1267      F1274   1.357   1_554  S
C1268      C1269   1.404       .  A
C1269      C1270   1.391       .  A
C1269      F1276   1.359       .  S
C1270      C1271   1.410       .  A
C1270      F1275   1.359       .  S
C1271      C1272   1.410       .  A
C1272      F1273   1.356   1_554  S
C1277      C1278   1.403       .  A
C1277      C1282   1.404       .  A
C1277      F1284   1.345   1_554  S
C1278      C1279   1.416       .  A
C1279      C1280   1.391       .  A
C1279      F1286   1.359       .  S
C1280      C1281   1.403       .  A
C1280      F1285   1.359       .  S
C1281      C1282   1.404       .  A
C1282      F1283   1.357       .  S
C1287      C1288   1.404       .  A
C1287      C1292   1.400       .  A
C1287      F1294   1.352       .  S
C1288      C1289   1.399       .  A
C1289      C1290   1.394       .  A
C1289      F1296   1.359       .  S
C1290      C1291   1.411       .  A
C1290      F1295   1.357       .  S
C1291      C1292   1.409       .  A
C1292      F1293   1.357       .  S
C1297      C1298   1.408   1_655  A
C1297      C1302   1.392       .  A
C1297      F1304   1.359       .  S
C1298      C1299   1.406       .  A
C1299      C1300   1.400       .  A
C1299      F1306   1.356       .  S
C1300      C1301   1.403   1_455  A
C1300      F1305   1.358       .  S
C1301      C1302   1.400       .  A
C1302      F1303   1.358       .  S
C1307      C1308   1.412   1_655  A
C1307      C1312   1.397       .  A
C1307      F1314   1.358       .  S
C1308      C1309   1.409       .  A
C1309      C1310   1.399       .  A
C1309      F1316   1.357       .  S
C1310      C1311   1.402   1_455  A
C1310      F1315   1.358       .  S
C1311      C1312   1.400       .  A
C1312      F1313   1.358       .  S
C1317      C1318   1.404       .  A
C1317      C1322   1.395   1_455  A
C1317      F1324   1.359       .  S
C1318      C1319   1.405       .  A
C1319      C1320   1.410       .  A
C1319      F1326   1.356       .  S
C1320      C1321   1.412   1_455  A
C1320      F1325   1.357   1_455  S
C1321      C1322   1.409       .  A
C1322      F1323   1.358       .  S
C1327      C1328   1.413   1_655  A
C1327      C1332   1.395       .  A
C1327      F1334   1.359       .  S
C1328      C1329   1.405       .  A
C1329      C1330   1.403       .  A
C1329      F1336   1.356       .  S
C1330      C1331   1.404       .  A
C1330      F1335   1.357       .  S
C1331      C1332   1.399   1_455  A
C1332      F1333   1.359       .  S
C1337      C1338   1.418       .  A
C1337      C1342   1.389       .  A
C1337      F1344   1.359       .  S
C1338      C1339   1.411       .  A
C1339      C1340   1.407       .  A
C1339      F1346   1.357   1_565  S
C1340      C1341   1.405       .  A
C1340      F1345   1.357   1_565  S
C1341      C1342   1.397       .  A
C1342      F1343   1.359       .  S
C1347      C1348   1.404       .  A
C1347      C1352   1.394       .  A
C1347      F1354   1.359       .  S
C1348      C1349   1.405       .  A
C1349      C1350   1.407       .  A
C1349      F1356   1.356       .  S
C1350      C1351   1.411       .  A
C1350      F1355   1.357       .  S
C1351      C1352   1.408       .  A
C1352      F1353   1.358       .  S
C1357      C1358   1.412       .  A
C1357      C1362   1.395       .  A
C1357      F1364   1.358       .  S
C1358      C1359   1.408       .  A
C1359      C1360   1.399       .  A
C1359      F1366   1.357       .  S
C1360      C1361   1.403       .  A
C1360      F1365   1.358       .  S
C1361      C1362   1.400       .  A
C1362      F1363   1.358       .  S
C1367      C1368   1.404       .  A
C1367      C1372   1.396       .  A
C1367      F1374   1.355       .  S
C1368      C1369   1.405       .  A
C1369      C1370   1.397       .  A
C1369      F1376   1.358       .  S
C1370      C1371   1.401       .  A
C1370      F1375   1.358       .  S
C1371      C1372   1.401       .  A
C1372      F1373   1.358       .  S
C1377      C1378   1.410       .  A
C1377      C1382   1.404       .  A
C1377      F1384   1.352       .  S
C1378      C1379   1.413       .  A
C1379      C1380   1.394       .  A
C1379      F1386   1.358       .  S
C1380      C1381   1.403       .  A
C1380      F1385   1.358       .  S
C1381      C1382   1.404       .  A
C1382      F1383   1.357       .  S
C1387      C1388   1.412       .  A
C1387      C1392   1.400       .  A
C1387      F1394   1.358       .  S
C1388      C1389   1.405       .  A
C1389      C1390   1.400       .  A
C1389      F1396   1.354       .  S
C1390      C1391   1.405       .  A
C1390      F1395   1.358       .  S
C1391      C1392   1.402       .  A
C1392      F1393   1.358       .  S
C1397      C1398   1.413       .  A
C1397      C1402   1.410       .  A
C1397      F1404   1.356       .  S
C1398      C1399   1.410       .  A
C1399      C1400   1.394       .  A
C1399      F1406   1.357       .  S
C1400      C1401   1.405       .  A
C1400      F1405   1.359       .  S
C1401      C1402   1.406       .  A
C1402      F1403   1.355       .  S
C1407      C1408   1.415       .  A
C1407      C1412   1.392       .  A
C1407      F1414   1.359       .  S
C1408      C1409   1.409       .  A
C1409      C1410   1.405       .  A
C1409      F1416   1.356       .  S
C1410      C1411   1.404       .  A
C1410      F1415   1.357       .  S
C1411      C1412   1.397       .  A
C1412      F1413   1.359       .  S
