geometry optimzed in LAMMPS
_audit_creation_date              2020-11-30 
_audit_creation_method            'lammps2cif' 
_symmetry_space_group_name_H-M    'P1' 
_symmetry_Int_Tables_number       1 
_symmetry_cell_setting            triclinic 
loop_ 
_symmetry_equiv_pos_as_xyz 
  x,y,z 
_cell_length_a                    33.00413383 
_cell_length_b                    33.35648713617624 
_cell_length_c                    36.04377487562272 
_cell_angle_alpha                 90.35584501910691 
_cell_angle_beta                  90.09878069442091 
_cell_angle_gamma                 119.43820178753548 
loop_ 
_atom_site_label 
_atom_site_type_symbol 
_atom_site_fract_x 
_atom_site_fract_y 
_atom_site_fract_z 
_atom_site_charge 
O1          O  0.46120722  0.98998362  0.33403008    -0.79300
O2          O  0.53918695  0.98101898  0.18564197    -0.79400
O3          O  0.39689272  0.96894793  0.22746923    -0.79400
O4          O  0.52801222  0.93786798  0.30305937    -0.79300
O5          O  0.45226870  0.95833037  0.20189905    -0.79400
O6          O  0.54408059  0.99324766  0.34393939    -0.79400
O7          O  0.52806497  0.93067002  0.22757918    -0.79300
O8          O  0.42950715  0.94074906  0.28722523    -0.79400
C9          C  0.43001094  0.95085079  0.32137639     1.10300
C10         C  0.53393047  0.94238061  0.19394875     1.10200
C11         C  0.41039340  0.95221117  0.20170029     1.10400
C12         C  0.53489699  0.95233913  0.33601067     1.10200
O13         O  0.59035469  0.07867157  0.30228087    -0.79300
O14         O  0.51188524  0.03606142  0.16751869    -0.79400
O15         O  0.43779995  0.02952134  0.28534888    -0.79400
O16         O  0.60883397  0.02299809  0.22510921    -0.79300
O17         O  0.57994572  0.06938413  0.21879407    -0.79400
O18         O  0.50976080  0.07907966  0.29469891    -0.79400
O19         O  0.61257586  0.02675315  0.30064881    -0.79300
O20         O  0.47438594  0.04751904  0.21337629    -0.79400
Co21       Co  0.52640929  0.03472609  0.31589837     1.51500
Co22       Co  0.51671954  0.01664115  0.21402597     1.51700
Co23       Co  0.45527715  0.99211614  0.25108800     1.51600
Co24       Co  0.56575085  0.98008166  0.26443050     1.51500
O25         O  0.51921201  0.00404465  0.26639316    -1.41300
C26         C  0.62131503  0.06775538  0.30753923     1.10300
C27         C  0.48707240  0.05236072  0.17874255     1.10400
C28         C  0.46783297  0.06847231  0.29792803     1.10300
C29         C  0.61086904  0.05882529  0.21079225     1.10300
O30         O  0.98138614  0.52170907  0.34050868    -0.79300
O31         O  0.92477830  0.42086112  0.21403155    -0.79400
O32         O  0.98011249  0.57865241  0.21607993    -0.79400
O33         O  0.98381355  0.40890673  0.29124825    -0.79300
O34         O  0.92953255  0.50692035  0.21308408    -0.79400
O35         O  0.94249558  0.44378005  0.29900935    -0.79400
O36         O  0.97550470  0.39705476  0.21609627    -0.79300
O37         O  0.96566945  0.54989030  0.28946474    -0.79400
C38         C  0.95956749  0.53917351  0.32427100     1.10300
C39         C  0.93635460  0.39115689  0.20543044     1.10200
C40         C  0.94286196  0.54777217  0.20271471     1.10400
C41         C  0.94945774  0.41041287  0.30628783     1.10200
O42         O  0.03557229  0.48038692  0.32621700    -0.79300
O43         O  0.01471443  0.54106475  0.17018717    -0.79400
O44         O  0.05271211  0.61385389  0.27656564    -0.79400
O45         O  0.06535673  0.47359748  0.20403691    -0.79300
O46         O  0.00557361  0.45839610  0.16776030    -0.79400
O47         O  0.06286839  0.56285921  0.30420565    -0.79400
O48         O  0.07943851  0.48546111  0.27964872    -0.79300
O49         O  0.06528622  0.58233401  0.21368284    -0.79400
Co50       Co  0.00003425  0.50453251  0.29724212     1.51500
Co51       Co  0.96967068  0.48193888  0.19533723     1.51700
Co52       Co  0.01359892  0.55912850  0.24879558     1.51600
Co53       Co  0.02588317  0.44497694  0.24779539     1.51500
O54         O  0.00756443  0.49523183  0.24430752    -1.41300
C55         C  0.07151260  0.48048291  0.31387064     1.10300
C56         C  0.05432826  0.57421332  0.17971801     1.10400
C57         C  0.07187104  0.60434192  0.30168916     1.10300
C58         C  0.04692614  0.46649319  0.17201960     1.10300
O59         O  0.50645877  0.45601182  0.33277947    -0.79300
O60         O  0.58790026  0.50510094  0.20130901    -0.79400
O61         O  0.43276156  0.40031134  0.21338504    -0.79400
O62         O  0.59911403  0.57544196  0.27907372    -0.79300
O63         O  0.50527126  0.42039892  0.20670060    -0.79400
O64         O  0.57753201  0.50199066  0.28489582    -0.79400
O65         O  0.60292748  0.57679784  0.20388798    -0.79300
O66         O  0.46652050  0.41333308  0.28415492    -0.79400
C67         C  0.48158779  0.41689911  0.31798863     1.10300
C68         C  0.61340605  0.54689512  0.19263733     1.10200
C69         C  0.46314186  0.39217552  0.19950208     1.10400
C70         C  0.60605410  0.54393672  0.29240077     1.10200
O71         O  0.52853668  0.54307351  0.31817226    -0.79300
O72         O  0.45892715  0.46235909  0.16700283    -0.79400
O73         O  0.38854380  0.41733154  0.27043573    -0.79400
O74         O  0.51744222  0.57811962  0.19798657    -0.79300
O75         O  0.53689296  0.53827455  0.15989814    -0.79400
O76         O  0.44501153  0.47690842  0.30081540    -0.79400
O77         O  0.51498716  0.58237139  0.27658404    -0.79300
O78         O  0.42334906  0.47929600  0.21147779    -0.79400
Co79       Co  0.51140093  0.48633516  0.28837511     1.51500
Co80       Co  0.52264243  0.48172393  0.18703215     1.51700
Co81       Co  0.44800638  0.45260068  0.24864796     1.51600
Co82       Co  0.55488277  0.57386505  0.23928882     1.51500
O83         O  0.51245532  0.50367886  0.23644421    -1.41300
C84         C  0.52162304  0.57614935  0.31021764     1.10300
C85         C  0.42708375  0.47099562  0.17737453     1.10400
C86         C  0.40284043  0.44273894  0.29927924     1.10300
C87         C  0.52507140  0.56860072  0.16540368     1.10300
O88         O  0.85591746  0.60191653  0.43531960    -0.79300
O89         O  0.78449764  0.65788042  0.97571456    -0.79400
O90         O  0.74894815  0.56779359  0.43085766    -0.79400
O91         O  0.89030043  0.67908824  0.04419137    -0.79300
O92         O  0.69904222  0.58594051  0.45574693    -0.79400
O93         O  0.89826821  0.67012541  0.48520206    -0.79400
O94         O  0.80343951  0.67614755  0.03464768    -0.79300
O95         O  0.80481835  0.52994113  0.43679958    -0.79400
C96         C  0.83794216  0.56284072  0.42049861     1.10300
C97         C  0.79230518  0.68514461  0.00296590     1.10200
C98         C  0.71425036  0.57530976  0.42714697     1.10400
C99         C  0.91493601  0.69247193  0.01476686     1.10200
O100        O  0.89990938  0.60621555  0.03914735    -0.79300
O101        O  0.70257462  0.52070807  0.99934553    -0.79400
O102        O  0.78272659  0.50550547  0.51219519    -0.79400
O103        O  0.75973506  0.58336765  0.06746165    -0.79300
O104        O  0.72044496  0.60304471  0.03097301    -0.79400
O105        O  0.85397145  0.53528477  0.49077794    -0.79400
O106        O  0.83813114  0.58595867  0.07319776    -0.79300
O107        O  0.71833977  0.48291434  0.45710110    -0.79400
Co108      Co  0.87333035  0.60349723  0.48770196     1.51500
Co109      Co  0.74906494  0.59108675  0.98587210     1.51700
Co110      Co  0.76701179  0.53897499  0.47503434     1.51600
Co111      Co  0.82189972  0.62941800  0.05207543     1.51500
O112        O  0.81058021  0.59653496  0.00271617    -1.41300
C113        C  0.87699508  0.58895236  0.06863735     1.10300
C114        C  0.69101628  0.48271185  0.48142854     1.10400
C115        C  0.81831196  0.50166395  0.50555495     1.10300
C116        C  0.72498238  0.58794152  0.06182037     1.10300
O117        O  0.75993050  0.15454007  0.44309547    -0.79300
O118        O  0.87647779  0.22205110  0.98803926    -0.79400
O119        O  0.82476605  0.26619513  0.44039777    -0.79400
O120        O  0.79335125  0.12387546  0.05719369    -0.79300
O121        O  0.89245110  0.30828781  0.46816601    -0.79400
O122        O  0.78431627  0.11495998  0.49728116    -0.79400
O123        O  0.87428800  0.20863059  0.04812623    -0.79300
O124        O  0.73415189  0.20317543  0.43888756    -0.79400
C125        C  0.74129004  0.17254282  0.42400768     1.10300
C126        C  0.89502491  0.21593432  0.01675305     1.10200
C127        C  0.86801793  0.29851402  0.43890302     1.10400
C128        C  0.78866323  0.09990319  0.02813676     1.10200
O129        O  0.71070209  0.11077590  0.04534610    -0.79300
O130        O  0.82095622  0.30530091  0.00682849    -0.79400
O131        O  0.71670149  0.22043108  0.51450472    -0.79400
O132        O  0.82007302  0.25306179  0.07492026    -0.79300
O133        O  0.88237917  0.28761006  0.04223326    -0.79400
O134        O  0.68571057  0.15076271  0.49045744    -0.79400
O135        O  0.74520237  0.17350173  0.07937240    -0.79300
O136        O  0.76419037  0.29235406  0.46722663    -0.79400
Co137      Co  0.73862831  0.13643665  0.49421350     1.51500
Co138      Co  0.84529264  0.25874563  0.99539272     1.51700
Co139      Co  0.77224692  0.24206235  0.48217858     1.51600
Co140      Co  0.80744449  0.19092147  0.06220030     1.51500
O141        O  0.78863177  0.20006355  0.01084126    -1.41300
C142        C  0.71287712  0.13303975  0.07495939     1.10300
C143        C  0.79499257  0.31884760  0.49038121     1.10400
C144        C  0.68083163  0.18281519  0.50559167     1.10300
C145        C  0.86066693  0.28529476  0.07168924     1.10300
O146        O  0.26067085  0.84510545  0.44051061    -0.79300
O147        O  0.13422650  0.77538384  0.98654209    -0.79400
O148        O  0.19430902  0.74102310  0.43694097    -0.79400
O149        O  0.21508623  0.87257929  0.05250612    -0.79300
O150        O  0.12422267  0.69368646  0.46013993    -0.79400
O151        O  0.22763619  0.88171741  0.49249077    -0.79400
O152        O  0.13657142  0.78651919  0.04694159    -0.79300
O153        O  0.28855455  0.79873873  0.44015883    -0.79400
C154        C  0.28651371  0.83201242  0.42538111     1.10300
C155        C  0.11533187  0.77970023  0.01595926     1.10200
C156        C  0.15163952  0.70879388  0.43264736     1.10400
C157        C  0.21983559  0.89558562  0.02295363     1.10200
O158        O  0.29813449  0.88950063  0.04431174    -0.79300
O159        O  0.19339260  0.69338200  0.00024249    -0.79400
O160        O  0.29432047  0.77607748  0.51542022    -0.79400
O161        O  0.19041705  0.74471779  0.07438839    -0.79300
O162        O  0.13185381  0.70806032  0.03658281    -0.79400
O163        O  0.32841252  0.84791455  0.49593208    -0.79400
O164        O  0.26669431  0.82714028  0.07804933    -0.79300
O165        O  0.25110316  0.70980873  0.46157533    -0.79400
Co166      Co  0.27501418  0.86230416  0.49327100     1.51500
Co167      Co  0.16861806  0.74054334  0.99125749     1.51700
Co168      Co  0.24307985  0.75890447  0.47968044     1.51600
Co169      Co  0.20361662  0.80685412  0.06020048     1.51500
O170        O  0.22464412  0.79863855  0.00921110    -1.41300
C171        C  0.29785715  0.86804836  0.07332225     1.10300
C172        C  0.21950544  0.68092029  0.48232146     1.10400
C173        C  0.33105935  0.81423100  0.51038704     1.10300
C174        C  0.15154058  0.71015617  0.06732201     1.10300
O175        O  0.54415671  0.85088223  0.49994548    -0.79300
O176        O  0.60659403  0.71332554  0.03202735    -0.79400
O177        O  0.48264146  0.71467734  0.46575612    -0.79400
O178        O  0.59265412  0.82749776  0.08282408    -0.79300
O179        O  0.52508491  0.69719243  0.00241328    -0.79400
O180        O  0.61399938  0.88947571  0.04940982    -0.79400
O181        O  0.58721964  0.74789274  0.07326675    -0.79300
O182        O  0.50912564  0.77968849  0.52011778    -0.79400
C183        C  0.50869315  0.81697104  0.51441913     1.10300
C184        C  0.58639240  0.71208690  0.06183634     1.10200
C185        C  0.48543599  0.68614959  0.48695181     1.10400
C186        C  0.59515606  0.86586570  0.07828506     1.10200
O187        O  0.67883354  0.88803035  0.49510992    -0.79300
O188        O  0.59086336  0.69499218  0.46004781    -0.79400
O189        O  0.53468361  0.80152184  0.44491895    -0.79400
O190        O  0.68069127  0.79134124  0.03939739    -0.79300
O191        O  0.66388675  0.77921891  0.97961299    -0.79400
O192        O  0.60853077  0.84936200  0.44441760    -0.79400
O193        O  0.68571911  0.87709695  0.05390625    -0.79300
O194        O  0.56574048  0.73964837  0.43649498    -0.79400
Co195      Co  0.61165998  0.86600464  0.49696602     1.51500
Co196      Co  0.59621433  0.74418833  0.98928799     1.51700
Co197      Co  0.54075954  0.76138911  0.48238667     1.51600
Co198      Co  0.63454659  0.80996482  0.05937555     1.51500
O199        O  0.60075708  0.80229172  0.01007513    -1.41300
C200        C  0.70055007  0.90273968  0.02542322     1.10300
C201        C  0.57253899  0.70460822  0.43324436     1.10400
C202        C  0.56891746  0.83564910  0.43058941     1.10300
C203        C  0.69056288  0.78359926  0.00669142     1.10300
O204        O  0.15710384  0.39056250  0.42804325    -0.79300
O205        O  0.22505123  0.33642623  0.97975544    -0.79400
O206        O  0.26134476  0.41818688  0.43168050    -0.79400
O207        O  0.11854036  0.32051934  0.04051508    -0.79300
O208        O  0.31155300  0.40609892  0.46336367    -0.79400
O209        O  0.11192059  0.32524013  0.48045656    -0.79400
O210        O  0.20529907  0.32209566  0.03847020    -0.79300
O211        O  0.20985470  0.46179904  0.42777340    -0.79400
C212        C  0.17509638  0.42897203  0.41235367     1.10300
C213        C  0.21739432  0.31120312  0.00794027     1.10200
C214        C  0.29678506  0.41174809  0.43245474     1.10400
C215        C  0.09478536  0.30527832  0.01067915     1.10200
O216        O  0.10924559  0.39349840  0.02822685    -0.79300
O217        O  0.30565404  0.47390734  0.00092867    -0.79400
O218        O  0.22872271  0.49296396  0.50196438    -0.79400
O219        O  0.24698871  0.41579862  0.07080865    -0.79300
O220        O  0.28701738  0.39532373  0.03598963    -0.79400
O221        O  0.15750471  0.46087305  0.47869062    -0.79400
O222        O  0.16717437  0.41392275  0.06737323    -0.79300
O223        O  0.29659468  0.50767563  0.45199226    -0.79400
Co224      Co  0.13760409  0.39227372  0.47940144     1.51500
Co225      Co  0.26027675  0.40358778  0.98855022     1.51700
Co226      Co  0.24436465  0.45412387  0.47019453     1.51600
Co227      Co  0.18559791  0.36983959  0.05112283     1.51500
O228        O  0.19896078  0.40027698  0.00035593    -1.41300
C229        C  0.13045162  0.41358042  0.05785315     1.10300
C230        C  0.32038282  0.50972464  0.48007090     1.10400
C231        C  0.19320424  0.49576002  0.49261778     1.10300
C232        C  0.28320778  0.41330391  0.06575411     1.10300
O233        O  0.46438075  0.14219914  0.48837858    -0.79300
O234        O  0.40473744  0.28174405  0.03775494    -0.79400
O235        O  0.52362553  0.27894685  0.46289581    -0.79400
O236        O  0.41993255  0.16296166  0.07530104    -0.79300
O237        O  0.48497389  0.29576683  0.00420606    -0.79400
O238        O  0.39617124  0.10205620  0.03923743    -0.79400
O239        O  0.42660639  0.24308953  0.07199763    -0.79300
O240        O  0.49900278  0.21124853  0.51339542    -0.79400
C241        C  0.49987094  0.17492893  0.50457406     1.10300
C242        C  0.42125774  0.27733945  0.06816290     1.10200
C243        C  0.52309362  0.30690812  0.48644426     1.10400
C244        C  0.41550446  0.12417657  0.06882371     1.10200
O245        O  0.32887314  0.10484930  0.48929687    -0.79300
O246        O  0.41985509  0.30260673  0.46313544    -0.79400
O247        O  0.46962406  0.19281943  0.43631638    -0.79400
O248        O  0.33076068  0.20216037  0.04115448    -0.79300
O249        O  0.34574161  0.21909861  0.98194088    -0.79400
O250        O  0.39594428  0.14333737  0.43573090    -0.79400
O251        O  0.32530384  0.11572479  0.04896642    -0.79300
O252        O  0.43796197  0.25320632  0.43684132    -0.79400
Co253      Co  0.39631022  0.12717123  0.48843798     1.51500
Co254      Co  0.41351125  0.25203719  0.99135826     1.51700
Co255      Co  0.46602144  0.23101549  0.47864336     1.51600
Co256      Co  0.37747649  0.18190789  0.05636732     1.51500
O257        O  0.40739280  0.19053748  0.00578406    -1.41300
C258        C  0.30850667  0.09067221  0.02000208     1.10300
C259        C  0.43226988  0.28876945  0.43474606     1.10400
C260        C  0.43448848  0.16158768  0.41927563     1.10300
C261        C  0.31994901  0.21257864  0.00992193     1.10300
C262        C  0.26256184  0.23184225  0.04076674     0.24400
C263        C  0.28229684  0.22555679  0.00799179    -0.23700
C264        C  0.27161942  0.23962433  0.97423950     0.19300
C265        C  0.24664649  0.26374189  0.97377370     0.24300
C266        C  0.23130752  0.27445614  0.00705181    -0.23700
C267        C  0.23752116  0.25589555  0.04030343     0.19200
F268        F  0.22265896  0.26402837  0.07313274    -0.13600
F269        F  0.27038699  0.21790886  0.07402657    -0.16000
F270        F  0.24014090  0.27916248  0.44061740    -0.16000
F271        F  0.28774407  0.23267631  0.44150094    -0.13600
C272        C  0.40465703  0.55774439  0.99922947     0.24400
C273        C  0.36176692  0.55419569  0.48960983    -0.23700
C274        C  0.35927027  0.59467544  0.48516314     0.19300
C275        C  0.39918330  0.63759219  0.48703348     0.24300
C276        C  0.44297884  0.64128949  0.49338206    -0.23700
C277        C  0.44509346  0.60116399  0.00134614     0.19200
F278        F  0.48651663  0.60349121  0.00880098    -0.13600
F279        F  0.40813828  0.51921226  0.00367429    -0.16000
F280        F  0.39496961  0.67559642  0.48128135    -0.16000
F281        F  0.31804071  0.59268572  0.47779435    -0.13600
C282        C  0.26191115  0.01763085  0.05695001     0.24400
C283        C  0.27102712  0.04125053  0.02289478    -0.23700
C284        C  0.25092657  0.01490426  0.99047659     0.19300
C285        C  0.22879406  0.96664858  0.99123785     0.24300
C286        C  0.22605180  0.94327335  0.02445639    -0.23700
C287        C  0.23925502  0.96917392  0.05772060     0.19200
F288        F  0.23411007  0.94804577  0.09081782    -0.13600
F289        F  0.27868619  0.04120020  0.08929852    -0.16000
F290        F  0.21307333  0.94300995  0.95877301    -0.16000
F291        F  0.25570143  0.03585213  0.95732252    -0.13600
C292        C  0.22970011  0.61539759  0.45843459     0.24400
C293        C  0.21272394  0.63337304  0.48603005    -0.23700
C294        C  0.18838254  0.60483350  0.01627545     0.19300
C295        C  0.18093515  0.55955258  0.01848655     0.24300
C296        C  0.19758123  0.54201523  0.49051011    -0.23700
C297        C  0.22163112  0.57024201  0.46046135     0.19200
F298        F  0.23802315  0.55422237  0.43295796    -0.13600
F299        F  0.25390956  0.64125771  0.42902075    -0.16000
F300        F  0.15812726  0.53321403  0.04806573    -0.16000
F301        F  0.17305811  0.62116243  0.04426043    -0.13600
C302        C  0.38123704  0.78075245  0.03256749     0.24400
C303        C  0.37760897  0.81792102  0.51720108    -0.23700
C304        C  0.41869725  0.85658380  0.50489297     0.19300
C305        C  0.46150551  0.85729730  0.50606308     0.24300
C306        C  0.46480965  0.81930641  0.51951268    -0.23700
C307        C  0.42415909  0.78147832  0.03370878     0.19200
F308        F  0.42528373  0.74412844  0.04721800    -0.13600
F309        F  0.34294867  0.74271459  0.04510210    -0.16000
F310        F  0.49927932  0.89458975  0.49201003    -0.16000
F311        F  0.41744079  0.89312752  0.48973812    -0.13600
C312        C  0.77705544  0.02699222  0.99682677     0.24400
C313        C  0.77994388  0.05117044  0.02994211    -0.23700
C314        C  0.76615119  0.02574776  0.06316227     0.19300
C315        C  0.74442290  0.97720274  0.06245859     0.24300
C316        C  0.73639843  0.95288172  0.02854049    -0.23700
C317        C  0.75568464  0.97875920  0.99615930     0.19200
F318        F  0.75081418  0.95725746  0.46286332    -0.13600
F319        F  0.79198823  0.04978615  0.46410917    -0.16000
F320        F  0.72763408  0.95406811  0.09466336    -0.16000
F321        F  0.77030114  0.04738500  0.09611133    -0.13600
C322        C  0.02024218  0.25596931  0.04602636     0.24400
C323        C  0.04386745  0.27037527  0.01190391    -0.23700
C324        C  0.01677320  0.25776578  0.97907727     0.19300
C325        C  0.96806487  0.23624772  0.98052408     0.24300
C326        C  0.94464338  0.22612508  0.01482565    -0.23700
C327        C  0.97136600  0.23387608  0.04743684     0.19200
F328        F  0.95064727  0.22331401  0.08118242    -0.13600
F329        F  0.04433806  0.26672315  0.57855165    -0.16000
F330        F  0.94417282  0.22816922  0.94809604    -0.16000
F331        F  0.03733929  0.26916476  0.94527859    -0.13600
C332        C  0.59528464  0.14338929  0.98849948     0.24400
C333        C  0.63307131  0.17753360  0.50913911    -0.23700
C334        C  0.62507771  0.20814043  0.53102682     0.19300
C335        C  0.58138024  0.20597808  0.53095281     0.24300
C336        C  0.54422634  0.17311838  0.50897311    -0.23700
C337        C  0.55169515  0.14123882  0.98843772     0.19200
F338        F  0.51749770  0.10918719  0.96647754    -0.13600
F339        F  0.60080643  0.11309913  0.96668693    -0.16000
F340        F  0.57585438  0.23682469  0.55201255    -0.16000
F341        F  0.65975101  0.24075166  0.55228002    -0.13600
C342        C  0.04027936  0.76111094  0.04925239     0.24400
C343        C  0.06542349  0.76937408  0.01569975    -0.23700
C344        C  0.04043020  0.76127654  0.98221818     0.19300
C345        C  0.99163840  0.74090828  0.98215750     0.24300
C346        C  0.96603470  0.72745108  0.01559632    -0.23700
C347        C  0.99138015  0.74040042  0.04917067     0.19200
F348        F  0.96886277  0.72988146  0.08217956    -0.13600
F349        F  0.06248296  0.76993644  0.08253811    -0.16000
F350        F  0.96919750  0.73150893  0.44882711    -0.16000
F351        F  0.06275344  0.77057112  0.44905078    -0.13600
C352        C  0.78104633  0.74860395  0.03148607     0.24400
C353        C  0.77953895  0.72254517  0.99996956    -0.23700
C354        C  0.75732167  0.72647160  0.96779662     0.19300
C355        C  0.73166950  0.74990577  0.96879648     0.24300
C356        C  0.72828862  0.77105551  0.00185116    -0.23700
C357        C  0.75592847  0.77255132  0.03237397     0.19200
F358        F  0.75635422  0.79465751  0.06424959    -0.13600
F359        F  0.80432073  0.74860372  0.06258651    -0.16000
F360        F  0.70734712  0.74870076  0.93799715    -0.16000
F361        F  0.75762187  0.70496273  0.93580941    -0.13600
C362        C  0.85219817  0.44875544  0.49723189     0.24400
C363        C  0.81523436  0.45553715  0.50896059    -0.23700
C364        C  0.77289879  0.41634985  0.51892014     0.19300
C365        C  0.76591800  0.37176078  0.51269420     0.24300
C366        C  0.80200466  0.36539450  0.49873017    -0.23700
C367        C  0.84575271  0.40419959  0.49292791     0.19200
F368        F  0.88187816  0.39893933  0.48133056    -0.13600
F369        F  0.89427048  0.48505218  0.48863741    -0.16000
F370        F  0.72399103  0.33481308  0.52051420    -0.16000
F371        F  0.73766761  0.42098232  0.53381720    -0.13600
C372        C  0.60686273  0.43513640  0.00130207     0.24400
C373        C  0.64876644  0.43808908  0.48956687    -0.23700
C374        C  0.64948768  0.39694778  0.48183395     0.19300
C375        C  0.60926948  0.35440011  0.48416589     0.24300
C376        C  0.56641143  0.35139677  0.49287524    -0.23700
C377        C  0.56579051  0.39204441  0.00269108     0.19200
F378        F  0.52498746  0.39052979  0.01109260    -0.13600
F379        F  0.60475348  0.47402571  0.00866711    -0.16000
F380        F  0.61212368  0.31597175  0.47629658    -0.16000
F381        F  0.68897119  0.39767380  0.47028560    -0.13600
C382        C  0.47248957  0.31960256  0.12200522     0.24400
C383        C  0.43319549  0.30946911  0.09998652    -0.23700
C384        C  0.40237594  0.32432167  0.11205699     0.19300
C385        C  0.41057730  0.34874580  0.14558696     0.24300
C386        C  0.45056004  0.35981430  0.16739354    -0.23700
C387        C  0.48137223  0.34494311  0.15503246     0.19200
F388        F  0.52011208  0.35475895  0.17502007    -0.13600
F389        F  0.50253796  0.30492946  0.11141328    -0.16000
F390        F  0.37972314  0.36239783  0.15609941    -0.16000
F391        F  0.36328781  0.31356101  0.09218617    -0.13600
C392        C  0.42146398  0.34491582  0.34746349     0.24400
C393        C  0.46867336  0.37606340  0.34058428    -0.23700
C394        C  0.50307735  0.37383892  0.36180179     0.19300
C395        C  0.49061252  0.34297662  0.39102077     0.24300
C396        C  0.44358571  0.31485223  0.40016219    -0.23700
C397        C  0.40894321  0.31493167  0.37765682     0.19200
F398        F  0.36330959  0.28731903  0.38570641    -0.13600
F399        F  0.38757594  0.34618044  0.32699345    -0.16000
F400        F  0.52474669  0.34301120  0.41197135    -0.16000
F401        F  0.54883197  0.40345116  0.35548096    -0.13600
C402        C  0.66178481  0.60168975  0.14267419     0.24400
C403        C  0.64585248  0.55904976  0.16096675    -0.23700
C404        C  0.65435657  0.52553798  0.14454972     0.19300
C405        C  0.67738229  0.53408807  0.11067538     0.24300
C406        C  0.69206579  0.57601924  0.09232426    -0.23700
C407        C  0.68429185  0.60978105  0.10851833     0.19200
F408        F  0.70057759  0.65145983  0.09217690    -0.13600
F409        F  0.65503235  0.63555349  0.15731405    -0.16000
F410        F  0.68607154  0.50152834  0.09586666    -0.16000
F411        F  0.64014944  0.48427273  0.16103063    -0.13600
C412        C  0.68605794  0.53578029  0.36506831     0.24400
C413        C  0.69244248  0.57118667  0.39006887    -0.23700
C414        C  0.67448062  0.60013228  0.38045690     0.19300
C415        C  0.64982472  0.59336025  0.34720657     0.24300
C416        C  0.64071279  0.55613020  0.32317170    -0.23700
C417        C  0.65975552  0.52782132  0.33231583     0.19200
F418        F  0.65198096  0.49175523  0.31002627    -0.13600
F419        F  0.70272908  0.50693609  0.37346587    -0.16000
F420        F  0.63222731  0.62172312  0.33995179    -0.16000
F421        F  0.67984815  0.63458501  0.40369847    -0.13600
C422        C  0.53058511  0.66663980  0.11155445     0.24400
C423        C  0.56129850  0.66967771  0.08313839    -0.23700
C424        C  0.56951248  0.63285637  0.07687663     0.19300
C425        C  0.55260219  0.59661350  0.10163113     0.24300
C426        C  0.52841036  0.59749430  0.13372318    -0.23700
C427        C  0.51455494  0.63087384  0.13694959     0.19200
F428        F  0.48760103  0.63028295  0.16559562    -0.13600
F429        F  0.51766987  0.69928430  0.11580843    -0.16000
F430        F  0.56367892  0.56291435  0.09557404    -0.16000
F431        F  0.59674809  0.63333464  0.04847389    -0.13600
C432        C  0.52358016  0.59456860  0.37750595     0.24400
C433        C  0.52722432  0.60921320  0.34052094    -0.23700
C434        C  0.54333762  0.65641299  0.33398138     0.19300
C435        C  0.55741357  0.68816806  0.36387698     0.24300
C436        C  0.55624328  0.67319704  0.40051406    -0.23700
C437        C  0.53797047  0.62589607  0.40681842     0.19200
F438        F  0.53401208  0.60951993  0.44180398    -0.13600
F439        F  0.50755252  0.54964460  0.38562691    -0.16000
F440        F  0.57436064  0.73356042  0.35686741    -0.16000
F441        F  0.54808886  0.67224143  0.29876716    -0.13600
C442        C  0.40209217  0.46386266  0.11101871     0.24400
C443        C  0.39181509  0.46504275  0.14894212    -0.23700
C444        C  0.34603883  0.45301106  0.15875491     0.19300
C445        C  0.31087916  0.43710611  0.13160825     0.24300
C446        C  0.32070449  0.43229385  0.09421350    -0.23700
C447        C  0.36687027  0.44676585  0.08421965     0.19200
F448        F  0.37806888  0.44402724  0.04843679    -0.13600
F449        F  0.44631284  0.47792274  0.09978233    -0.16000
F450        F  0.26674916  0.42420581  0.14234465    -0.16000
F451        F  0.33462944  0.45412085  0.19477054    -0.13600
C452        C  0.32477108  0.40949866  0.33085371     0.24400
C453        C  0.37365388  0.43274853  0.33257887    -0.23700
C454        C  0.39578910  0.44465123  0.36752014     0.19300
C455        C  0.37021959  0.43526608  0.39980600     0.24300
C456        C  0.32168529  0.41416342  0.39820234    -0.23700
C457        C  0.29886704  0.40090489  0.36356390     0.19200
F458        F  0.25174129  0.37979677  0.36144133    -0.13600
F459        F  0.30225523  0.39617915  0.29771143    -0.16000
F460        F  0.39345187  0.44926528  0.43267250    -0.16000
F461        F  0.44260118  0.46499572  0.37088748    -0.13600
C462        C  0.88022605  0.52834803  0.15542500     0.24400
C463        C  0.92500794  0.55839955  0.16879661    -0.23700
C464        C  0.95518107  0.59713435  0.14727433     0.19300
C465        C  0.94083221  0.60501731  0.11303814     0.24300
C466        C  0.89575243  0.57543976  0.10012187    -0.23700
C467        C  0.86549978  0.53708701  0.12158320     0.19200
F468        F  0.82124066  0.50842426  0.10996472    -0.13600
F469        F  0.85040232  0.49119405  0.17550036    -0.16000
F470        F  0.97019275  0.64301067  0.09354883    -0.16000
F471        F  0.99896887  0.62751589  0.15898430    -0.13600
C472        C  0.89157989  0.50647858  0.36522049     0.24400
C473        C  0.92418354  0.54378700  0.34456893    -0.23700
C474        C  0.92286621  0.58509984  0.34389404     0.19300
C475        C  0.89201364  0.59062129  0.36685227     0.24300
C476        C  0.86139355  0.55422176  0.38964784    -0.23700
C477        C  0.85979174  0.51133587  0.38719188     0.19200
F478        F  0.83014169  0.47511994  0.40825724    -0.13600
F479        F  0.89119142  0.46556111  0.36469610    -0.16000
F480        F  0.89355332  0.63204810  0.36811372    -0.16000
F481        F  0.95334452  0.62088304  0.32289210    -0.13600
C482        C  0.87163882  0.35333674  0.15845620     0.24400
C483        C  0.91384115  0.35966631  0.17337466    -0.23700
C484        C  0.93916193  0.34277391  0.15306275     0.19300
C485        C  0.92365724  0.32202062  0.11837807     0.24300
C486        C  0.88174783  0.31584632  0.10377740    -0.23700
C487        C  0.85552637  0.33113014  0.12418148     0.19200
F488        F  0.81420100  0.32456535  0.11073740    -0.13600
F489        F  0.84610583  0.36889355  0.17679664    -0.16000
F490        F  0.94878537  0.30625310  0.09972102    -0.16000
F491        F  0.97997185  0.34748191  0.16597035    -0.13600
C492        C  0.94118197  0.39889199  0.37492567     0.24400
C493        C  0.92603901  0.38048534  0.33908532    -0.23700
C494        C  0.89227527  0.33356480  0.33590424     0.19300
C495        C  0.87285488  0.30646046  0.36802081     0.24300
C496        C  0.88879063  0.32513276  0.40390542    -0.23700
C497        C  0.92420864  0.37144697  0.40652501     0.19200
F498        F  0.94252757  0.39086071  0.43996571    -0.13600
F499        F  0.97381231  0.44369864  0.37965077    -0.16000
F500        F  0.83956197  0.26169992  0.36394887    -0.16000
F501        F  0.87794838  0.31407715  0.30182308    -0.13600
C502        C  0.13802376  0.46040851  0.11422787     0.24400
C503        C  0.11133140  0.43447590  0.08341276    -0.23700
C504        C  0.06578319  0.42672099  0.07896755     0.19300
C505        C  0.04588980  0.44068625  0.10657839     0.24300
C506        C  0.07098728  0.46169848  0.13948431    -0.23700
C507        C  0.11792159  0.47366147  0.14203351     0.19200
F508        F  0.14409756  0.49677096  0.17206252    -0.13600
F509        F  0.18333042  0.47171221  0.11836526    -0.16000
F510        F  0.00116993  0.43112190  0.10175035    -0.16000
F511        F  0.03948821  0.40350755  0.04899365    -0.13600
C512        C  0.07622622  0.42600596  0.35772030     0.24400
C513        C  0.09904928  0.46711979  0.33767217    -0.23700
C514        C  0.14780314  0.49264781  0.33849076     0.19300
C515        C  0.17318665  0.47873371  0.36108990     0.24300
C516        C  0.15011397  0.43849136  0.38256520    -0.23700
C517        C  0.10137202  0.41163210  0.37975041     0.19200
F518        F  0.07750825  0.37256265  0.39977702    -0.13600
F519        F  0.02937173  0.39909451  0.35551584    -0.16000
F520        F  0.22022369  0.50505135  0.36250273    -0.16000
F521        F  0.17067345  0.53174123  0.31835547    -0.13600
C522        C  0.14089880  0.68467967  0.13345037     0.24400
C523        C  0.12937636  0.67380111  0.09564877    -0.23700
C524        C  0.09664265  0.62838498  0.08568193     0.19300
C525        C  0.07504997  0.59488890  0.11297246     0.24300
C526        C  0.08449411  0.60653987  0.15091287    -0.23700
C527        C  0.11881025  0.65147069  0.16072821     0.19200
F528        F  0.12934281  0.66427682  0.19686332    -0.13600
F529        F  0.17172289  0.72830036  0.14441824    -0.16000
F530        F  0.04415533  0.55120585  0.10219518    -0.16000
F531        F  0.08544533  0.61628827  0.04952416    -0.13600
C532        C  0.13526883  0.63603168  0.34848072     0.24400
C533        C  0.09991764  0.63916720  0.32967160    -0.23700
C534        C  0.08601516  0.67082541  0.34219001     0.19300
C535        C  0.10355995  0.69474230  0.37561117     0.24300
C536        C  0.13613767  0.68838106  0.39585137    -0.23700
C537        C  0.15348282  0.66074659  0.38126607     0.19200
F538        F  0.18609269  0.65545950  0.39999915    -0.13600
F539        F  0.15091427  0.60776207  0.33573787    -0.16000
F540        F  0.08801799  0.72303206  0.38864574    -0.16000
F541        F  0.05315313  0.67618630  0.32362326    -0.13600
C542        C  0.36222003  0.95286872  0.14960949     0.24400
C543        C  0.38037944  0.92932579  0.16976836    -0.23700
C544        C  0.37479094  0.88740264  0.15626092     0.19300
C545        C  0.34906092  0.86799072  0.12388293     0.24300
C546        C  0.33054472  0.89139897  0.10386285    -0.23700
C547        C  0.33835021  0.93451443  0.11640781     0.19200
F548        F  0.32137747  0.95804386  0.09732486    -0.13600
F549        F  0.36866213  0.99426987  0.16161660    -0.16000
F550        F  0.34221922  0.82639512  0.11197386    -0.16000
F551        F  0.39341247  0.86494598  0.17481741    -0.13600
C552        C  0.33935218  0.90902365  0.39778663     0.24400
C553        C  0.32007945  0.86083207  0.39617509    -0.23700
C554        C  0.33637630  0.84198177  0.36877295     0.19300
C555        C  0.37112945  0.87081272  0.34360530     0.24300
C556        C  0.39175462  0.91913626  0.34648265    -0.23700
C557        C  0.37513847  0.93766048  0.37384203     0.19200
F558        F  0.39336295  0.98388886  0.37742015    -0.13600
F559        F  0.32505540  0.92892101  0.42382289    -0.16000
F560        F  0.38554600  0.85152116  0.31719872    -0.16000
F561        F  0.31851322  0.79570075  0.36623681    -0.13600
C562        C  0.57509120  0.86887616  0.14484267     0.24400
C563        C  0.57657301  0.88299732  0.10776764    -0.23700
C564        C  0.55837599  0.91188767  0.09909757     0.19300
C565        C  0.54048835  0.92770329  0.12700466     0.24300
C566        C  0.54149110  0.91588764  0.16445888    -0.23700
C567        C  0.55789619  0.88536263  0.17296250     0.19200
F568        F  0.56007109  0.87368775  0.20864108    -0.13600
F569        F  0.59234132  0.84078207  0.15426381    -0.16000
F570        F  0.52359264  0.95603187  0.11737842    -0.16000
F571        F  0.55777544  0.92484506  0.06355980    -0.13600
C572        C  0.50998880  0.87539959  0.36243340     0.24400
C573        C  0.53965280  0.92327189  0.36373361    -0.23700
C574        C  0.57919831  0.94203660  0.38660956     0.19300
C575        C  0.59000580  0.91320586  0.40693654     0.24300
C576        C  0.56073853  0.86513114  0.40528549    -0.23700
C577        C  0.52014449  0.84651211  0.38342925     0.19200
F578        F  0.49063298  0.80036847  0.38205023    -0.13600
F579        F  0.47159157  0.85664363  0.34032485    -0.16000
F580        F  0.62858188  0.93256533  0.42887317    -0.16000
F581        F  0.60878747  0.98815053  0.38775233    -0.13600
C582        C  0.64900880  0.12273533  0.16455756     0.24400
C583        C  0.64023313  0.07952976  0.17749162    -0.23700
C584        C  0.65248352  0.05255647  0.15460105     0.19300
C585        C  0.67237324  0.06821882  0.11966002     0.24300
C586        C  0.68204644  0.11177133  0.10722254    -0.23700
C587        C  0.67012003  0.13885641  0.13007320     0.19200
F588        F  0.67920675  0.18131490  0.11900074    -0.13600
F589        F  0.63732488  0.14956143  0.18537682    -0.16000
F590        F  0.68380620  0.04142139  0.09862857    -0.16000
F591        F  0.64413398  0.01026354  0.16542923    -0.13600
C592        C  0.67227201  0.14599859  0.33514934     0.24400
C593        C  0.66410042  0.10099249  0.32770789    -0.23700
C594        C  0.69191517  0.08593124  0.34574684     0.19300
C595        C  0.72122675  0.11186345  0.37489599     0.24300
C596        C  0.72291708  0.15318836  0.38665128    -0.23700
C597        C  0.70115315  0.17170796  0.36459085     0.19200
F598        F  0.70524671  0.21330026  0.37291231    -0.13600
F599        F  0.64956018  0.16386071  0.31582544    -0.16000
F600        F  0.74474395  0.09427108  0.39345888    -0.16000
F601        F  0.68782760  0.04428841  0.33761660    -0.13600
C602        C  0.43031982  0.11452406  0.13482396     0.24400
C603        C  0.43272718  0.10503985  0.09696036    -0.23700
C604        C  0.45502356  0.08057454  0.08625580     0.19300
C605        C  0.47443982  0.06531149  0.11295067     0.24300
C606        C  0.47129135  0.07380796  0.15111999    -0.23700
C607        C  0.44924145  0.09872617  0.16177440     0.19200
F608        F  0.44567049  0.10752469  0.19809797    -0.13600
F609        F  0.40897540  0.13852479  0.14578575    -0.16000
F610        F  0.49526660  0.04113276  0.10110581    -0.16000
F611        F  0.45922329  0.07251401  0.04985991    -0.13600
C612        C  0.48991762  0.14152931  0.33375350     0.24400
C613        C  0.45526410  0.09737050  0.32196294    -0.23700
C614        C  0.41098856  0.07859080  0.33831921     0.19300
C615        C  0.40323917  0.10083119  0.36846166     0.24300
C616        C  0.43946779  0.14281056  0.38275734    -0.23700
C617        C  0.48214125  0.16390666  0.36370859     0.19200
F618        F  0.51734927  0.20541301  0.37503322    -0.13600
F619        F  0.53239217  0.16234621  0.31743473    -0.16000
F620        F  0.36094404  0.07950848  0.38503250    -0.16000
F621        F  0.37588391  0.03705106  0.32696487    -0.13600
O622        O  0.46109106  0.98989992  0.83398204    -0.79300
O623        O  0.53889298  0.98090069  0.68551138    -0.79400
O624        O  0.39668412  0.96889885  0.72744862    -0.79400
O625        O  0.52780222  0.93773363  0.80294345    -0.79300
O626        O  0.45202421  0.95822133  0.70188927    -0.79400
O627        O  0.54393299  0.99313305  0.84382078    -0.79400
O628        O  0.52779197  0.93055172  0.72744450    -0.79300
O629        O  0.42932097  0.94066391  0.78718604    -0.79400
C630        C  0.42988302  0.95076257  0.82134616     1.10300
C631        C  0.53367184  0.94227579  0.69381567     1.10200
C632        C  0.41016771  0.95214066  0.70168269     1.10400
C633        C  0.53473113  0.95222044  0.83589231     1.10200
O634        O  0.59023410  0.07855512  0.80219117    -0.79300
O635        O  0.51157165  0.03592970  0.66747985    -0.79400
O636        O  0.43764005  0.02944115  0.78534912    -0.79400
O637        O  0.60857872  0.02284382  0.72496936    -0.79300
O638        O  0.57971657  0.06925627  0.71866544    -0.79400
O639        O  0.50961318  0.07900369  0.79466866    -0.79400
O640        O  0.61238867  0.02658293  0.80050998    -0.79300
O641        O  0.47419914  0.04748229  0.71337416    -0.79400
Co642      Co  0.52627488  0.03463271  0.81582326     1.51500
Co643      Co  0.51647363  0.01652152  0.71395761     1.51700
Co644      Co  0.45508289  0.99204707  0.75105538     1.51600
Co645      Co  0.56552058  0.97993871  0.76430092     1.51500
O646        O  0.51902284  0.00394474  0.76631660    -1.41300
C647        C  0.62116178  0.06758711  0.80744426     1.10300
C648        C  0.48688872  0.05235655  0.67874071     1.10400
C649        C  0.46768320  0.06838951  0.79792383     1.10300
C650        C  0.61062583  0.05867787  0.71065780     1.10300
O651        O  0.98153961  0.52162495  0.84051883    -0.79300
O652        O  0.92490568  0.42078215  0.71404641    -0.79400
O653        O  0.98000918  0.57851931  0.71614356    -0.79400
O654        O  0.98400259  0.40885193  0.79116328    -0.79300
O655        O  0.92947867  0.50676733  0.71311788    -0.79400
O656        O  0.94266078  0.44368919  0.79901454    -0.79400
O657        O  0.97570039  0.39706356  0.71599889    -0.79300
O658        O  0.96579110  0.54984034  0.78950746    -0.79400
C659        C  0.95973219  0.53912413  0.82431439     1.10300
C660        C  0.93653029  0.39113747  0.70536651     1.10200
C661        C  0.94276456  0.54762265  0.70277658     1.10400
C662        C  0.94965653  0.41033157  0.80625314     1.10200
O663        O  0.03573877  0.48033437  0.82616384    -0.79300
O664        O  0.01460676  0.54102852  0.67016241    -0.79400
O665        O  0.05275376  0.61380821  0.77656742    -0.79400
O666        O  0.06549577  0.47369220  0.70395032    -0.79300
O667        O  0.00566560  0.45845994  0.66771547    -0.79400
O668        O  0.06297220  0.56283797  0.80418582    -0.79400
O669        O  0.07959629  0.48546907  0.77957343    -0.79300
O670        O  0.06525363  0.58237906  0.71357935    -0.79400
Co671      Co  0.00016428  0.50447190  0.79723213     1.51500
Co672      Co  0.96969029  0.48188346  0.69533747     1.51700
Co673      Co  0.01364945  0.55908334  0.74878106     1.51600
Co674      Co  0.02604783  0.44499057  0.74771197     1.51500
O675        O  0.00765571  0.49520615  0.74427901    -1.41300
C676        C  0.07167069  0.48043616  0.81379365     1.10300
C677        C  0.05422285  0.57421673  0.67962878     1.10400
C678        C  0.07190669  0.60430468  0.80170357     1.10300
C679        C  0.04704777  0.46663111  0.67194054     1.10300
O680        O  0.50645392  0.45590458  0.83273890    -0.79300
O681        O  0.58780026  0.50504331  0.70128872    -0.79400
O682        O  0.43265583  0.40026661  0.71334548    -0.79400
O683        O  0.59901946  0.57539918  0.77908903    -0.79300
O684        O  0.50516208  0.42035455  0.70663133    -0.79400
O685        O  0.57750694  0.50196547  0.78487229    -0.79400
O686        O  0.60283772  0.57674116  0.70390208    -0.79300
O687        O  0.46648068  0.41324780  0.78411366    -0.79400
C688        C  0.48157549  0.41679592  0.81793809     1.10300
C689        C  0.61330826  0.54683917  0.69262978     1.10200
C690        C  0.46302874  0.39214357  0.69943348     1.10400
C691        C  0.60600054  0.54391114  0.79239317     1.10200
O692        O  0.52844254  0.54301510  0.81819894    -0.79300
O693        O  0.45884803  0.46237252  0.66698425    -0.79400
O694        O  0.38848836  0.41724953  0.77045622    -0.79400
O695        O  0.51731979  0.57803024  0.69801695    -0.79300
O696        O  0.53683883  0.53828980  0.65988399    -0.79400
O697        O  0.44497823  0.47680572  0.80084247    -0.79400
O698        O  0.51484711  0.58224846  0.77657481    -0.79300
O699        O  0.42324839  0.47923024  0.71149998    -0.79400
Co700      Co  0.51136754  0.48627553  0.78837022     1.51500
Co701      Co  0.52255817  0.48170312  0.68700056     1.51700
Co702      Co  0.44793440  0.45252824  0.74864448     1.51600
Co703      Co  0.55478062  0.57379319  0.73929977     1.51500
O704        O  0.51237614  0.50361706  0.73643859    -1.41300
C705        C  0.52148416  0.57606288  0.81021453     1.10300
C706        C  0.42698262  0.47096147  0.67738669     1.10400
C707        C  0.40280893  0.44263932  0.79930870     1.10300
C708        C  0.52495116  0.56856337  0.66542071     1.10300
O709        O  0.85600557  0.60199945  0.93524587    -0.79300
O710        O  0.78452381  0.65794472  0.47575881    -0.79400
O711        O  0.74899633  0.56782081  0.93078794    -0.79400
O712        O  0.89031637  0.67909755  0.54420972    -0.79300
O713        O  0.69902607  0.58583887  0.95572502    -0.79400
O714        O  0.89833697  0.67018676  0.98518156    -0.79400
O715        O  0.80348610  0.67621373  0.53468877    -0.79300
O716        O  0.80490185  0.53001898  0.93669089    -0.79400
C717        C  0.83806126  0.56292402  0.92042527     1.10300
C718        C  0.79234613  0.68521089  0.50301345     1.10200
C719        C  0.71425899  0.57527734  0.92710281     1.10400
C720        C  0.91491180  0.69244939  0.51476141     1.10200
O721        O  0.89982832  0.60618263  0.53923327    -0.79300
O722        O  0.70248422  0.52076361  0.49937517    -0.79400
O723        O  0.78282992  0.50553042  0.01207354    -0.79400
O724        O  0.75970492  0.58350979  0.56756101    -0.79300
O725        O  0.72043136  0.60313578  0.53098731    -0.79400
O726        O  0.85407427  0.53534137  0.99065085    -0.79400
O727        O  0.83806978  0.58598904  0.57329231    -0.79300
O728        O  0.71841351  0.48292255  0.95700395    -0.79400
Co729      Co  0.87341520  0.60355376  0.98762461     1.51500
Co730      Co  0.74904493  0.59114291  0.48591024     1.51700
Co731      Co  0.76708193  0.53899656  0.97493916     1.51600
Co732      Co  0.82189297  0.62947239  0.55213631     1.51500
O733        O  0.81051785  0.59652429  0.50279403    -1.41300
C734        C  0.87691110  0.58893325  0.56872695     1.10300
C735        C  0.69111073  0.48267812  0.98137160     1.10400
C736        C  0.81840819  0.50169303  0.00539556     1.10300
C737        C  0.72494262  0.58805470  0.56185255     1.10300
O738        O  0.75987730  0.15441225  0.94307145    -0.79300
O739        O  0.87648346  0.22199375  0.48801741    -0.79400
O740        O  0.82490388  0.26607336  0.94032505    -0.79400
O741        O  0.79337178  0.12385846  0.55716364    -0.79300
O742        O  0.89244832  0.30834717  0.96822628    -0.79400
O743        O  0.78424067  0.11487421  0.99731606    -0.79400
O744        O  0.87429117  0.20860286  0.54811361    -0.79300
O745        O  0.73418215  0.20310215  0.93877520    -0.79400
C746        C  0.74123242  0.17238556  0.92395181     1.10300
C747        C  0.89502426  0.21588536  0.51674341     1.10200
C748        C  0.86812804  0.29847096  0.93889448     1.10400
C749        C  0.78871084  0.09993237  0.52808225     1.10200
O750        O  0.71075209  0.11077775  0.54533679    -0.79300
O751        O  0.82104930  0.30534213  0.50683027    -0.79400
O752        O  0.71675976  0.22051728  0.01433544    -0.79400
O753        O  0.82016199  0.25306870  0.57493317    -0.79300
O754        O  0.88242512  0.28759146  0.54217183    -0.79400
O755        O  0.68571407  0.15077278  0.99042105    -0.79400
O756        O  0.74523977  0.17348333  0.57939511    -0.79300
O757        O  0.76433767  0.29234975  0.96698894    -0.79400
Co758      Co  0.73858796  0.13639436  0.99421139     1.51500
Co759      Co  0.84531419  0.25871824  0.49536112     1.51700
Co760      Co  0.77231631  0.24203667  0.98204014     1.51600
Co761      Co  0.80747685  0.19090990  0.56220489     1.51500
O762        O  0.78865047  0.20008970  0.51086563    -1.41300
C763        C  0.71290956  0.13302573  0.57495548     1.10300
C764        C  0.79501309  0.31882923  0.99022877     1.10400
C765        C  0.68087412  0.18287906  0.00549357     1.10300
C766        C  0.86074843  0.28531117  0.57163975     1.10300
O767        O  0.26071388  0.84505729  0.94060596    -0.79300
O768        O  0.13421080  0.77540426  0.48642212    -0.79400
O769        O  0.19428853  0.74099606  0.93701327    -0.79400
O770        O  0.21503493  0.87256936  0.55243312    -0.79300
O771        O  0.12420677  0.69367662  0.96022425    -0.79400
O772        O  0.22770417  0.88170283  0.99256473    -0.79400
O773        O  0.13653943  0.78652902  0.54682383    -0.79300
O774        O  0.28857764  0.79867909  0.94025618    -0.79400
C775        C  0.28654694  0.83195383  0.92547630     1.10300
C776        C  0.11531146  0.77972549  0.51583547     1.10200
C777        C  0.15160471  0.70878672  0.93272012     1.10400
C778        C  0.21976462  0.89557971  0.52288900     1.10200
O779        O  0.29808683  0.88952507  0.54422005    -0.79300
O780        O  0.19339439  0.69343032  0.50016950    -0.79400
O781        O  0.29429473  0.77599219  0.01550858    -0.79400
O782        O  0.19039900  0.74471705  0.57426901    -0.79300
O783        O  0.13182833  0.70810786  0.53647795    -0.79400
O784        O  0.32843875  0.84784279  0.99605109    -0.79400
O785        O  0.26666107  0.82714820  0.57794270    -0.79300
O786        O  0.25108806  0.70976624  0.96163040    -0.79400
Co787      Co  0.27505833  0.86226097  0.99336569     1.51500
Co788      Co  0.16861247  0.74057631  0.49116086     1.51700
Co789      Co  0.24306901  0.75885481  0.97975754     1.51600
Co790      Co  0.20358256  0.80685563  0.56010059     1.51500
O791        O  0.22462468  0.79867457  0.50911365    -1.41300
C792        C  0.29781353  0.86806311  0.57322338     1.10300
C793        C  0.21951142  0.68088334  0.98239068     1.10400
C794        C  0.33104983  0.81414869  0.01052447     1.10300
C795        C  0.15151210  0.71016963  0.56720995     1.10300
O796        O  0.54415856  0.85095670  0.00008740    -0.79300
O797        O  0.60663041  0.71336391  0.53217198    -0.79400
O798        O  0.48261863  0.71484112  0.96574465    -0.79400
O799        O  0.59267509  0.82762220  0.58277315    -0.79300
O800        O  0.52511429  0.69713743  0.50251511    -0.79400
O801        O  0.61397338  0.88953246  0.54926819    -0.79400
O802        O  0.58725452  0.74798843  0.57335339    -0.79300
O803        O  0.50919894  0.77974343  0.02020123    -0.79400
C804        C  0.50872942  0.81701912  0.01457403     1.10300
C805        C  0.58640181  0.71215491  0.56195930     1.10200
C806        C  0.48540215  0.68626044  0.98688157     1.10400
C807        C  0.59517276  0.86598159  0.57817975     1.10200
O808        O  0.67883390  0.88807563  0.99519274    -0.79300
O809        O  0.59079687  0.69505225  0.95989373    -0.79400
O810        O  0.53469511  0.80168703  0.94500004    -0.79400
O811        O  0.68070336  0.79139719  0.53946299    -0.79300
O812        O  0.66389361  0.77920403  0.47968789    -0.79400
O813        O  0.60854118  0.84957181  0.94448582    -0.79400
O814        O  0.68571850  0.87716368  0.55384429    -0.79300
O815        O  0.56565655  0.73973313  0.93642196    -0.79400
Co816      Co  0.61166673  0.86606696  0.99706810     1.51500
Co817      Co  0.59623126  0.74414555  0.48938096     1.51700
Co818      Co  0.54076329  0.76147817  0.98238540     1.51600
Co819      Co  0.63455960  0.81004277  0.55938780     1.51500
O820        O  0.60073435  0.80226302  0.51008954    -1.41300
C821        C  0.70055316  0.90275212  0.52533259     1.10300
C822        C  0.57241953  0.70467076  0.93313043     1.10400
C823        C  0.56891709  0.83581728  0.93066489     1.10300
C824        C  0.69057738  0.78362655  0.50676876     1.10300
O825        O  0.15714272  0.39052219  0.92807402    -0.79300
O826        O  0.22492563  0.33636786  0.47969993    -0.79400
O827        O  0.26139655  0.41822845  0.93173472    -0.79400
O828        O  0.11853189  0.32054720  0.54048081    -0.79300
O829        O  0.31165017  0.40622054  0.96342589    -0.79400
O830        O  0.11199321  0.32523203  0.98049076    -0.79400
O831        O  0.20524105  0.32206137  0.53842443    -0.79300
O832        O  0.20985740  0.46176900  0.92781312    -0.79400
C833        C  0.17514246  0.42892127  0.91236999     1.10300
C834        C  0.21728169  0.31114230  0.50787909     1.10200
C835        C  0.29685961  0.41182688  0.93251240     1.10400
C836        C  0.09475695  0.30529048  0.51065789     1.10200
O837        O  0.10923901  0.39351754  0.52820349    -0.79300
O838        O  0.30563573  0.47382217  0.50088670    -0.79400
O839        O  0.22870428  0.49293744  0.00202730    -0.79400
O840        O  0.24696871  0.41577767  0.57075693    -0.79300
O841        O  0.28696056  0.39524542  0.53594725    -0.79400
O842        O  0.15751544  0.46084902  0.97870422    -0.79400
O843        O  0.16717534  0.41394700  0.56734335    -0.79300
O844        O  0.29655460  0.50769657  0.95201947    -0.79400
Co845      Co  0.13763550  0.39225381  0.97942852     1.51500
Co846      Co  0.26021284  0.40352149  0.48850261     1.51700
Co847      Co  0.24437399  0.45413097  0.97024403     1.51600
Co848      Co  0.18557621  0.36984157  0.55108339     1.51500
O849        O  0.19893173  0.40027964  0.50031563    -1.41300
C850        C  0.13047534  0.41364399  0.55780619     1.10300
C851        C  0.32036254  0.50979233  0.98009543     1.10400
C852        C  0.19319231  0.49573014  0.99266406     1.10300
C853        C  0.28315406  0.41322046  0.56571890     1.10300
O854        O  0.46442022  0.14221525  0.98840171    -0.79300
O855        O  0.40459729  0.28170211  0.53769247    -0.79400
O856        O  0.52364213  0.27893731  0.96284263    -0.79400
O857        O  0.41977090  0.16294021  0.57530823    -0.79300
O858        O  0.48486969  0.29576179  0.50419213    -0.79400
O859        O  0.39611293  0.10206116  0.53921283    -0.79400
O860        O  0.42646660  0.24306237  0.57194530    -0.79300
O861        O  0.49905896  0.21128712  0.01338146    -0.79400
C862        C  0.49991549  0.17495682  0.00458303     1.10300
C863        C  0.42111965  0.27731030  0.56810174     1.10200
C864        C  0.52316869  0.30689796  0.98642057     1.10400
C865        C  0.41537548  0.12417175  0.56881925     1.10200
O866        O  0.32892520  0.10488892  0.98934696    -0.79300
O867        O  0.41995086  0.30263018  0.96315505    -0.79400
O868        O  0.46964025  0.19279677  0.93631657    -0.79400
O869        O  0.33063578  0.20212288  0.54106345    -0.79300
O870        O  0.34565007  0.21905476  0.48185577    -0.79400
O871        O  0.39595475  0.14336072  0.93577501    -0.79400
O872        O  0.32520306  0.11571029  0.54890853    -0.79300
O873        O  0.43792997  0.25315024  0.93684543    -0.79400
Co874      Co  0.39635282  0.12718681  0.98847166     1.51500
Co875      Co  0.41341680  0.25200735  0.49131170     1.51700
Co876      Co  0.46605241  0.23101539  0.97863248     1.51600
Co877      Co  0.37735042  0.18188606  0.55631444     1.51500
O878        O  0.40732292  0.19051941  0.50574689    -1.41300
C879        C  0.30843848  0.09064473  0.51994952     1.10300
C880        C  0.43228261  0.28873812  0.93474858     1.10400
C881        C  0.43448122  0.16156899  0.91929885     1.10300
C882        C  0.31983292  0.21252603  0.50982217     1.10300
C883        C  0.26230860  0.23163545  0.54063139     0.24400
C884        C  0.28215729  0.22547468  0.50787067    -0.23700
C885        C  0.27155765  0.23963141  0.47412920     0.19300
C886        C  0.24657925  0.26374372  0.47367440     0.24300
C887        C  0.23115737  0.27436582  0.50695344    -0.23700
C888        C  0.23725766  0.25568141  0.54017844     0.19200
F889        F  0.22225650  0.26366957  0.57299706    -0.13600
F890        F  0.27001993  0.21757405  0.57387379    -0.16000
F891        F  0.24012491  0.27906911  0.94070211    -0.16000
F892        F  0.28772110  0.23257143  0.94160565    -0.13600
C893        C  0.40470002  0.55761852  0.49917846     0.24400
C894        C  0.36173000  0.55429030  0.98959374    -0.23700
C895        C  0.35923176  0.59475316  0.98501507     0.19300
C896        C  0.39914052  0.63767585  0.98683687     0.24300
C897        C  0.44293311  0.64139846  0.99327956    -0.23700
C898        C  0.44514203  0.60103209  0.50134223     0.19200
F899        F  0.48657084  0.60333698  0.50872403    -0.13600
F900        F  0.40818284  0.51907196  0.50350003    -0.16000
F901        F  0.39491976  0.67565226  0.98094817    -0.16000
F902        F  0.31800506  0.59273700  0.97756107    -0.13600
C903        C  0.26192418  0.01760973  0.55691095     0.24400
C904        C  0.27096859  0.04122743  0.52285866    -0.23700
C905        C  0.25079796  0.01488642  0.49045296     0.19300
C906        C  0.22865090  0.96663069  0.49121273     0.24300
C907        C  0.22596863  0.94325694  0.52441711    -0.23700
C908        C  0.23924254  0.96915478  0.55768094     0.19200
F909        F  0.23414851  0.94802372  0.59077036    -0.13600
F910        F  0.27880593  0.04117449  0.58924787    -0.16000
F911        F  0.21285510  0.94298762  0.45875783    -0.16000
F912        F  0.25551701  0.03583968  0.45730997    -0.13600
C913        C  0.22947367  0.61527502  0.95838690     0.24400
C914        C  0.21276108  0.63335308  0.98610451    -0.23700
C915        C  0.18802275  0.60472074  0.51604945     0.19300
C916        C  0.18060580  0.55945075  0.51826843     0.24300
C917        C  0.19756724  0.54198181  0.99056949    -0.23700
C918        C  0.22138091  0.57011288  0.96041042     0.19200
F919        F  0.23756669  0.55401361  0.93281490    -0.13600
F920        F  0.25348058  0.64105277  0.92887516    -0.16000
F921        F  0.15747021  0.53298422  0.54769796    -0.16000
F922        F  0.17227945  0.62087871  0.54386244    -0.13600
C923        C  0.38132575  0.78104299  0.53269676     0.24400
C924        C  0.37758675  0.81783737  0.01743557    -0.23700
C925        C  0.41876351  0.85675524  0.00558613     0.19300
C926        C  0.46159331  0.85750169  0.00676174     0.24300
C927        C  0.46482728  0.81930022  0.01977297    -0.23700
C928        C  0.42423034  0.78172464  0.53381638     0.19200
F929        F  0.42542923  0.74457475  0.54770423    -0.13600
F930        F  0.34311363  0.74325573  0.54564612    -0.16000
F931        F  0.49947784  0.89507338  0.99316228    -0.16000
F932        F  0.41759412  0.89356409  0.99089966    -0.13600
C933        C  0.77694689  0.02701219  0.49667971     0.24400
C934        C  0.77998035  0.05119054  0.52983061    -0.23700
C935        C  0.76633622  0.02576469  0.56305338     0.19300
C936        C  0.74462579  0.97722039  0.56233955     0.24300
C937        C  0.73641958  0.95289800  0.52840346    -0.23700
C938        C  0.75555739  0.97877826  0.49599741     0.19200
F939        F  0.75110056  0.95723062  0.96305409    -0.13600
F940        F  0.79223144  0.04976780  0.96427066    -0.16000
F941        F  0.72804986  0.95408589  0.59457273    -0.16000
F942        F  0.77061940  0.04739648  0.59602782    -0.13600
C943        C  0.02025027  0.25617395  0.54607491     0.24400
C944        C  0.04385727  0.27036308  0.51192935    -0.23700
C945        C  0.01675541  0.25752297  0.47910447     0.19300
C946        C  0.96804286  0.23598931  0.48055200     0.24300
C947        C  0.94464090  0.22607832  0.51485391    -0.23700
C948        C  0.97138038  0.23405620  0.54748752     0.19200
F949        F  0.95068615  0.22372167  0.58124656    -0.13600
F950        F  0.04432355  0.26625092  0.07849444    -0.16000
F951        F  0.94412106  0.22767079  0.44811707    -0.16000
F952        F  0.03732020  0.26869989  0.44529742    -0.13600
C953        C  0.59527898  0.14340122  0.48846777     0.24400
C954        C  0.63312571  0.17760995  0.00907035    -0.23700
C955        C  0.62518140  0.20829303  0.03089771     0.19300
C956        C  0.58147795  0.20611170  0.03086123     0.24300
C957        C  0.54427075  0.17315631  0.00897914    -0.23700
C958        C  0.55169873  0.14127652  0.48836227     0.19200
F959        F  0.51756286  0.10933194  0.46629457    -0.13600
F960        F  0.60084589  0.11317940  0.46660214    -0.16000
F961        F  0.57600039  0.23703582  0.05185609    -0.16000
F962        F  0.65990717  0.24099737  0.05205252    -0.13600
C963        C  0.04029983  0.76129466  0.54912735     0.24400
C964        C  0.06540508  0.76941243  0.51556834    -0.23700
C965        C  0.04036954  0.76117037  0.48209265     0.19300
C966        C  0.99157565  0.74078536  0.48205996     0.24300
C967        C  0.96601047  0.72744699  0.51552353    -0.23700
C968        C  0.99139748  0.74055520  0.54907512     0.19200
F969        F  0.96892055  0.73017795  0.58210017    -0.13600
F970        F  0.06254987  0.77030541  0.58240173    -0.16000
F971        F  0.96929664  0.73176602  0.94891544    -0.16000
F972        F  0.06285563  0.77080902  0.94919126    -0.13600
C973        C  0.78097317  0.74855004  0.53161342     0.24400
C974        C  0.77958383  0.72261384  0.50004761    -0.23700
C975        C  0.75746784  0.72664567  0.46785455     0.19300
C976        C  0.73181113  0.75007603  0.46886167     0.24300
C977        C  0.72831424  0.77109946  0.50194996    -0.23700
C978        C  0.75584295  0.77247914  0.53251303     0.19200
F979        F  0.75612728  0.79442793  0.56444119    -0.13600
F980        F  0.80411537  0.74842108  0.56275593    -0.16000
F981        F  0.70760130  0.74899525  0.43802750    -0.16000
F982        F  0.75787196  0.70524364  0.43583576    -0.13600
C983        C  0.85219318  0.44873879  0.99681612     0.24400
C984        C  0.81530832  0.45555054  0.00871776    -0.23700
C985        C  0.77301010  0.41638135  0.01878340     0.19300
C986        C  0.76600716  0.37177959  0.01258504     0.24300
C987        C  0.80202243  0.36538670  0.99849742    -0.23700
C988        C  0.84571941  0.40417592  0.99251046     0.19200
F989        F  0.88176291  0.39888499  0.98074380    -0.13600
F990        F  0.89420401  0.48500725  0.98803964    -0.16000
F991        F  0.72412954  0.33484778  0.02054897    -0.16000
F992        F  0.73782958  0.42103969  0.03375603    -0.13600
C993        C  0.60670872  0.43518397  0.50123258     0.24400
C994        C  0.64888094  0.43804538  0.98951807    -0.23700
C995        C  0.64957441  0.39691009  0.98169707     0.19300
C996        C  0.60934736  0.35436610  0.98402199     0.24300
C997        C  0.56651610  0.35136603  0.99283972    -0.23700
C998        C  0.56564054  0.39208454  0.50261071     0.19200
F999        F  0.52480218  0.39056638  0.51087785    -0.13600
F1000       F  0.60456044  0.47407801  0.50847515    -0.16000
F1001       F  0.61216583  0.31594186  0.97605003    -0.16000
F1002       F  0.68904072  0.39764242  0.97008897    -0.13600
C1003       C  0.47228112  0.31945566  0.62200188     0.24400
C1004       C  0.43307511  0.30945502  0.59991388    -0.23700
C1005       C  0.40235098  0.32446675  0.61189984     0.19300
C1006       C  0.41054808  0.34889483  0.64542732     0.24300
C1007       C  0.45043654  0.35981128  0.66730866    -0.23700
C1008       C  0.48116216  0.34480047  0.65502320     0.19200
F1009       F  0.51980667  0.35447025  0.67508806    -0.13600
F1010       F  0.50224165  0.30463975  0.61148854    -0.16000
F1011       F  0.37978435  0.36269275  0.65586756    -0.16000
F1012       F  0.36335477  0.31385651  0.59195117    -0.13600
C1013       C  0.42147623  0.34472451  0.84735045     0.24400
C1014       C  0.46868194  0.37594747  0.84052079    -0.23700
C1015       C  0.50308605  0.37379642  0.86179453     0.19300
C1016       C  0.49062393  0.34297852  0.89104388     0.24300
C1017       C  0.44359550  0.31479908  0.90014892    -0.23700
C1018       C  0.40895329  0.31476033  0.87756310     0.19200
F1019       F  0.36331659  0.28705387  0.88555033    -0.13600
F1020       F  0.38758626  0.34589698  0.82681267    -0.16000
F1021       F  0.52475971  0.34310226  0.91205131    -0.16000
F1022       F  0.54883803  0.40344787  0.85550238    -0.13600
C1023       C  0.66178957  0.60172498  0.64275601     0.24400
C1024       C  0.64572537  0.55899961  0.66093892    -0.23700
C1025       C  0.65406091  0.52544022  0.64439074     0.19300
C1026       C  0.67709122  0.53405054  0.61051598     0.24300
C1027       C  0.69194927  0.57608795  0.59229743    -0.23700
C1028       C  0.68430352  0.60987804  0.60860026     0.19200
F1029       F  0.70073111  0.65163845  0.59237070    -0.13600
F1030       F  0.65519312  0.63562934  0.65751963    -0.16000
F1031       F  0.68563001  0.50145032  0.59558085    -0.16000
F1032       F  0.63968468  0.48407078  0.66073958    -0.13600
C1033       C  0.68616717  0.53585867  0.86496693     0.24400
C1034       C  0.69243846  0.57117052  0.89003145    -0.23700
C1035       C  0.67435106  0.60003113  0.88048834     0.19300
C1036       C  0.64967802  0.59326270  0.84724945     0.24300
C1037       C  0.64067017  0.55611468  0.82315585    -0.23700
C1038       C  0.65984223  0.52789557  0.83222498     0.19200
F1039       F  0.65218230  0.49191892  0.80986828    -0.13600
F1040       F  0.70297677  0.50710723  0.87328769    -0.16000
F1041       F  0.63195980  0.62153955  0.84006290    -0.16000
F1042       F  0.67960741  0.63439291  0.90378789    -0.13600
C1043       C  0.53075239  0.66687647  0.61182746     0.24400
C1044       C  0.56121585  0.66974074  0.58325809    -0.23700
C1045       C  0.56903878  0.63269925  0.57680373     0.19300
C1046       C  0.55206738  0.59641884  0.60153244     0.24300
C1047       C  0.52819781  0.59746923  0.63377200    -0.23700
C1048       C  0.51465557  0.63106553  0.63717957     0.19200
F1049       F  0.48798942  0.63066468  0.66597907    -0.13600
F1050       F  0.51815732  0.69972933  0.61628101    -0.16000
F1051       F  0.56276801  0.56249080  0.59529139    -0.16000
F1052       F  0.59592233  0.63295659  0.54820642    -0.13600
C1053       C  0.52316487  0.59452944  0.87747305     0.24400
C1054       C  0.52702414  0.60916033  0.84047297    -0.23700
C1055       C  0.54328164  0.65637870  0.83388455     0.19300
C1056       C  0.55734598  0.68817179  0.86375461     0.24300
C1057       C  0.55601254  0.67321737  0.90041885    -0.23700
C1058       C  0.53754398  0.62589528  0.90676685     0.19200
F1059       F  0.53341026  0.60954653  0.94177730    -0.13600
F1060       F  0.50692309  0.54957820  0.88562276    -0.16000
F1061       F  0.57446088  0.73357729  0.85669751    -0.16000
F1062       F  0.54819901  0.67218317  0.79865043    -0.13600
C1063       C  0.40202512  0.46398808  0.61103596     0.24400
C1064       C  0.39168717  0.46497612  0.64897029    -0.23700
C1065       C  0.34584162  0.45266360  0.65879167     0.19300
C1066       C  0.31070002  0.43672763  0.63162824     0.24300
C1067       C  0.32061203  0.43215002  0.59420845    -0.23700
C1068       C  0.36682116  0.44684140  0.58421915     0.19200
F1069       F  0.37807749  0.44427493  0.54842257    -0.13600
F1070       F  0.44629491  0.47828220  0.59980699    -0.16000
F1071       F  0.26650827  0.42355592  0.64236440    -0.16000
F1072       F  0.33435727  0.45351160  0.69482566    -0.13600
C1073       C  0.32477619  0.40961125  0.83089341     0.24400
C1074       C  0.37365014  0.43264774  0.83261874    -0.23700
C1075       C  0.39579584  0.44439772  0.86755892     0.19300
C1076       C  0.37024742  0.43507754  0.89985070     0.24300
C1077       C  0.32172557  0.41418653  0.89825175    -0.23700
C1078       C  0.29889691  0.40107610  0.86360873     0.19200
F1079       F  0.25178362  0.38019010  0.86148334    -0.13600
F1080       F  0.30225257  0.39647421  0.79774484    -0.16000
F1081       F  0.39350278  0.44894576  0.93271615    -0.16000
F1082       F  0.44259536  0.46455143  0.87091787    -0.13600
C1083       C  0.88010410  0.52824792  0.65549601     0.24400
C1084       C  0.92490136  0.55826324  0.66886156    -0.23700
C1085       C  0.95508329  0.59699960  0.64734170     0.19300
C1086       C  0.94073585  0.60491823  0.61311796     0.24300
C1087       C  0.89564422  0.57538118  0.60020869    -0.23700
C1088       C  0.86537384  0.53703223  0.62166959     0.19200
F1089       F  0.82109546  0.50841910  0.61006675    -0.13600
F1090       F  0.85026806  0.49109421  0.67556576    -0.16000
F1091       F  0.97010948  0.64291738  0.59363886    -0.16000
F1092       F  0.99888097  0.62735674  0.65904448    -0.13600
C1093       C  0.89186114  0.50654074  0.86537529     0.24400
C1094       C  0.92441224  0.54379579  0.84465123    -0.23700
C1095       C  0.92306866  0.58509491  0.84390212     0.19300
C1096       C  0.89221524  0.59065095  0.86683085     0.24300
C1097       C  0.86160277  0.55428922  0.88965668    -0.23700
C1098       C  0.86006326  0.51142451  0.88730799     0.19200
F1099       F  0.83044819  0.47525373  0.90842819    -0.13600
F1100       F  0.89151044  0.46564045  0.86493815    -0.16000
F1101       F  0.89372454  0.63206602  0.86801548    -0.16000
F1102       F  0.95349964  0.62082596  0.82283347    -0.13600
C1103       C  0.87178925  0.35332451  0.65841915     0.24400
C1104       C  0.91405670  0.35973580  0.67325928    -0.23700
C1105       C  0.93944823  0.34300922  0.65284173     0.19300
C1106       C  0.92389716  0.32226126  0.61816424     0.24300
C1107       C  0.88188057  0.31592954  0.60367631    -0.23700
C1108       C  0.85564198  0.33113364  0.62414610     0.19200
F1109       F  0.81426196  0.32449765  0.61077031    -0.13600
F1110       F  0.84621806  0.36877370  0.67684027    -0.16000
F1111       F  0.94909405  0.30665555  0.59940337    -0.16000
F1112       F  0.98036658  0.34787547  0.66563659    -0.13600
C1113       C  0.94140068  0.39880446  0.87489839     0.24400
C1114       C  0.92628480  0.38038230  0.83905714    -0.23700
C1115       C  0.89258414  0.33343831  0.83588397     0.19300
C1116       C  0.87314068  0.30634737  0.86800521     0.24300
C1117       C  0.88899728  0.32505366  0.90389344    -0.23700
C1118       C  0.92442038  0.37136982  0.90650469     0.19200
F1119       F  0.94274406  0.39079716  0.93994118    -0.13600
F1120       F  0.97401111  0.44361885  0.87961920    -0.16000
F1121       F  0.83990083  0.26156655  0.86393631    -0.16000
F1122       F  0.87833470  0.31391448  0.80180572    -0.13600
C1123       C  0.13815194  0.46068162  0.61406912     0.24400
C1124       C  0.11140526  0.43463269  0.58331737    -0.23700
C1125       C  0.06584888  0.42685950  0.57888818     0.19300
C1126       C  0.04598638  0.44087701  0.60648368     0.24300
C1127       C  0.07111387  0.46193040  0.63936834    -0.23700
C1128       C  0.11807313  0.47397313  0.64186972     0.19200
F1129       F  0.14428899  0.49718672  0.67185157    -0.13600
F1130       F  0.18348300  0.47205056  0.61815174    -0.16000
F1131       F  0.00126097  0.43130207  0.60167300    -0.16000
F1132       F  0.03951100  0.40356258  0.54895657    -0.13600
C1133       C  0.07635677  0.42586113  0.85755902     0.24400
C1134       C  0.09919036  0.46701783  0.83756340    -0.23700
C1135       C  0.14794040  0.49256886  0.83843282     0.19300
C1136       C  0.17330338  0.47865339  0.86105449     0.24300
C1137       C  0.15021256  0.43839802  0.88251269    -0.23700
C1138       C  0.10148314  0.41149248  0.87961816     0.19200
F1139       F  0.07760729  0.37238893  0.89960333    -0.13600
F1140       F  0.02951163  0.39891582  0.85529130    -0.16000
F1141       F  0.22033600  0.50499094  0.86251667    -0.16000
F1142       F  0.17082263  0.53169572  0.81833906    -0.13600
C1143       C  0.14125993  0.68446053  0.63328978     0.24400
C1144       C  0.12933041  0.67378207  0.59551881    -0.23700
C1145       C  0.09611950  0.62852934  0.58556131     0.19300
C1146       C  0.07444413  0.59502639  0.61282837     0.24300
C1147       C  0.08431921  0.60650325  0.65076250    -0.23700
C1148       C  0.11910910  0.65124235  0.66055375     0.19200
F1149       F  0.13011394  0.66387014  0.69667120    -0.13600
F1150       F  0.17259397  0.72791018  0.64426838    -0.16000
F1151       F  0.04303575  0.55152159  0.60202786    -0.16000
F1152       F  0.08451256  0.61659481  0.54943039    -0.13600
C1153       C  0.13529050  0.63608281  0.84851417     0.24400
C1154       C  0.09986447  0.63911386  0.82973450    -0.23700
C1155       C  0.08584368  0.67066712  0.84229945     0.19300
C1156       C  0.10337607  0.69459523  0.87572424     0.24300
C1157       C  0.13607543  0.68836837  0.89591699    -0.23700
C1158       C  0.15350682  0.66082855  0.88128793     0.19200
F1159       F  0.18621772  0.65566371  0.89997190    -0.13600
F1160       F  0.15102657  0.60789734  0.83574601    -0.16000
F1161       F  0.08772304  0.72277920  0.88879693    -0.16000
F1162       F  0.05290296  0.67592944  0.82376315    -0.13600
C1163       C  0.36203795  0.95282185  0.64957020     0.24400
C1164       C  0.38016929  0.92926571  0.66974388    -0.23700
C1165       C  0.37464482  0.88737666  0.65620975     0.19300
C1166       C  0.34898578  0.86799904  0.62379856     0.24300
C1167       C  0.33047820  0.89140953  0.60377379    -0.23700
C1168       C  0.33824436  0.93450527  0.61633461     0.19200
F1169       F  0.32131898  0.95805725  0.59722633    -0.13600
F1170       F  0.36845007  0.99420711  0.66158869    -0.16000
F1171       F  0.34220981  0.82643773  0.61185848    -0.16000
F1172       F  0.39327627  0.86492749  0.67476402    -0.13600
C1173       C  0.33944003  0.90895609  0.89791643     0.24400
C1174       C  0.32010526  0.86076162  0.89626492    -0.23700
C1175       C  0.33631674  0.84189631  0.86880742     0.19300
C1176       C  0.37102482  0.87071970  0.84360350     0.24300
C1177       C  0.39168447  0.91904658  0.84649669    -0.23700
C1178       C  0.37517826  0.93758143  0.87393516     0.19200
F1179       F  0.39347023  0.98381245  0.87756325    -0.13600
F1180       F  0.32525190  0.92886502  0.92402738    -0.16000
F1181       F  0.38536971  0.85141810  0.81714999    -0.16000
F1182       F  0.31841272  0.79561090  0.86625195    -0.13600
C1183       C  0.57540701  0.86923775  0.64475828     0.24400
C1184       C  0.57662178  0.88315093  0.60765444    -0.23700
C1185       C  0.55811990  0.91177764  0.59895876     0.19300
C1186       C  0.54014453  0.92750590  0.62687173     0.24300
C1187       C  0.54133791  0.91584133  0.66434066    -0.23700
C1188       C  0.55809462  0.88560844  0.67287066     0.19200
F1189       F  0.56051238  0.87413742  0.70856671    -0.13600
F1190       F  0.59302679  0.84146203  0.65420549    -0.16000
F1191       F  0.52295681  0.95559026  0.61723994    -0.16000
F1192       F  0.55728319  0.92453364  0.56339378    -0.13600
C1193       C  0.51001595  0.87528729  0.86226023     0.24400
C1194       C  0.53952839  0.92318442  0.86361899    -0.23700
C1195       C  0.57895820  0.94205743  0.88662798     0.19300
C1196       C  0.58981544  0.91331540  0.90702461     0.24300
C1197       C  0.56071037  0.86522301  0.90530903    -0.23700
C1198       C  0.52021978  0.84648692  0.88332640     0.19200
F1199       F  0.49085656  0.80031566  0.88190100    -0.13600
F1200       F  0.47171271  0.85642676  0.84004585    -0.16000
F1201       F  0.62826189  0.93277220  0.92910310    -0.16000
F1202       F  0.60838543  0.98820152  0.88785576    -0.13600
C1203       C  0.64887324  0.12263789  0.66447697     0.24400
C1204       C  0.64002170  0.07939555  0.67737563    -0.23700
C1205       C  0.65227988  0.05242784  0.65448359     0.19300
C1206       C  0.67229062  0.06815093  0.61958786     0.24300
C1207       C  0.68203044  0.11173678  0.60718608    -0.23700
C1208       C  0.67007835  0.13880693  0.63003060     0.19200
F1209       F  0.67923823  0.18129985  0.61899292    -0.13600
F1210       F  0.63718008  0.14945623  0.68529683    -0.16000
F1211       F  0.68379309  0.04138780  0.59857628    -0.16000
F1212       F  0.64382943  0.01008748  0.66526677    -0.13600
C1213       C  0.67225649  0.14581529  0.83503682     0.24400
C1214       C  0.66393970  0.10074810  0.82766683    -0.23700
C1215       C  0.69158769  0.08556737  0.84581812     0.19300
C1216       C  0.72089085  0.11147993  0.87498063     0.24300
C1217       C  0.72276692  0.15292506  0.88663024    -0.23700
C1218       C  0.70114391  0.17151752  0.86448283     0.19200
F1219       F  0.70540692  0.21320186  0.87270576    -0.13600
F1220       F  0.64970068  0.16376614  0.81561463    -0.16000
F1221       F  0.74422359  0.09376885  0.89365058    -0.16000
F1222       F  0.68734254  0.04383864  0.83777877    -0.13600
C1223       C  0.42965818  0.11408119  0.63483423     0.24400
C1224       C  0.43259113  0.10505469  0.59695615    -0.23700
C1225       C  0.45550559  0.08119802  0.58624771     0.19300
C1226       C  0.47501751  0.06606200  0.61295387     0.24300
C1227       C  0.47125360  0.07397859  0.65114986    -0.23700
C1228       C  0.44862055  0.09834866  0.66180689     0.19200
F1229       F  0.44445511  0.10661093  0.69814713    -0.13600
F1230       F  0.40773831  0.13753973  0.64577329    -0.16000
F1231       F  0.49655972  0.04257904  0.60107037    -0.16000
F1232       F  0.46021280  0.07362236  0.54984035    -0.13600
C1233       C  0.48974440  0.14148571  0.83368172     0.24400
C1234       C  0.45512003  0.09727203  0.82198042    -0.23700
C1235       C  0.41089873  0.07843455  0.83844126     0.19300
C1236       C  0.40319064  0.10069015  0.86859160     0.24300
C1237       C  0.43940177  0.14274569  0.88278741    -0.23700
C1238       C  0.48200470  0.16388352  0.86364240     0.19200
F1239       F  0.51717701  0.20546125  0.87487040    -0.13600
F1240       F  0.53215475  0.16234441  0.81726017    -0.16000
F1241       F  0.36096635  0.07930939  0.88527274    -0.16000
F1242       F  0.37582044  0.03682752  0.82718549    -0.13600
loop_ 
_geom_bond_atom_site_label_1 
_geom_bond_atom_site_label_2 
_geom_bond_distance 
_geom_bond_site_symmetry_2 
_ccdc_geom_bond_type 
O1            C9   1.281       .  A
O1          Co21   2.036   1_565  S
O2           C10   1.251       .  A
O2          Co22   1.965   1_565  S
O3           C11   1.270       .  A
O3          Co23   1.886       .  S
O4           C12   1.257       .  A
O4          Co24   1.944       .  S
O5           C11   1.294       .  A
O5          Co22   2.102   1_565  S
O6           C12   1.274       .  A
O6          Co21   2.021   1_565  S
O7           C10   1.262       .  A
O7          Co24   1.995       .  S
O8            C9   1.272       .  A
O8          Co23   1.989       .  S
C9          C556   1.495       .  S
C10         C566   1.476       .  S
C11         C543   1.460       .  S
C12         C573   1.457       .  S
O13          C26   1.256       .  A
O13         Co21   1.953       .  S
O14          C27   1.251       .  A
O14         Co22   1.836       .  S
O15          C28   1.265       .  A
O15         Co23   2.026   1_545  S
O16          C29   1.276       .  A
O16         Co24   2.028   1_545  S
O17          C29   1.266       .  A
O17         Co22   1.966       .  S
O18          C28   1.254       .  A
O18         Co21   1.971       .  S
O19          C26   1.274       .  A
O19         Co24   2.030   1_545  S
O20          C27   1.303       .  A
O20         Co23   2.133   1_545  S
Co21         O25   2.006       .  S
Co22         O25   1.947       .  S
Co23         O25   2.021   1_565  S
Co24         O25   2.052   1_565  S
C26         C593   1.483       .  S
C27         C606   1.465       .  S
C28         C613   1.495       .  S
C29         C583   1.488       .  S
O30          C38   1.271       .  A
O30         Co50   1.865   1_655  S
O31          C39   1.262       .  A
O31         Co51   1.963       .  S
O32          C40   1.246       .  A
O32         Co52   1.936   1_655  S
O33          C41   1.281       .  A
O33         Co53   2.054   1_655  S
O34          C40   1.268       .  A
O34         Co51   1.985       .  S
O35          C41   1.271       .  A
O35         Co50   1.984   1_655  S
O36          C39   1.266       .  A
O36         Co53   1.996   1_655  S
O37          C38   1.295       .  A
O37         Co52   2.069   1_655  S
C38         C473   1.449       .  S
C39         C483   1.485       .  S
C40         C463   1.475       .  S
C41         C493   1.500       .  S
O42          C55   1.266       .  A
O42         Co50   2.012       .  S
O43          C56   1.274       .  A
O43         Co51   2.017   1_455  S
O44          C57   1.233       .  A
O44         Co52   1.912       .  S
O45          C58   1.269       .  A
O45         Co53   1.975       .  S
O46          C58   1.263       .  A
O46         Co51   1.979   1_455  S
O47          C57   1.268       .  A
O47         Co50   2.043       .  S
O48          C55   1.256       .  A
O48         Co53   1.973       .  S
O49          C56   1.265       .  A
O49         Co52   1.958       .  S
Co50         O54   1.967       .  S
Co51         O54   2.077   1_655  S
Co52         O54   2.046       .  S
Co53         O54   2.047       .  S
C55         C513   1.470       .  S
C56         C526   1.481       .  S
C57         C533   1.466       .  S
C58         C506   1.469       .  S
O59          C67   1.264       .  A
O59         Co79   1.863       .  S
O60          C68   1.266       .  A
O60         Co80   1.963       .  S
O61          C69   1.264       .  A
O61         Co81   2.005       .  S
O62          C70   1.277       .  A
O62         Co82   2.026       .  S
O63          C69   1.263       .  A
O63         Co80   1.970       .  S
O64          C70   1.272       .  A
O64         Co79   1.983       .  S
O65          C68   1.270       .  A
O65         Co82   2.002       .  S
O66          C67   1.299       .  A
O66         Co81   2.129       .  S
C67         C393   1.464       .  S
C68         C403   1.482       .  S
C69         C386   1.490       .  S
C70         C416   1.496       .  S
O71          C84   1.266       .  A
O71         Co79   1.994       .  S
O72          C85   1.275       .  A
O72         Co80   2.004       .  S
O73          C86   1.271       .  A
O73         Co81   1.897       .  S
O74          C87   1.272       .  A
O74         Co82   1.983       .  S
O75          C87   1.265       .  A
O75         Co80   1.972       .  S
O76          C86   1.296       .  A
O76         Co79   2.104       .  S
O77          C84   1.268       .  A
O77         Co82   1.997       .  S
O78          C85   1.278       .  A
O78         Co81   1.993       .  S
Co79         O83   1.958       .  S
Co80         O83   2.012       .  S
Co81         O83   2.018       .  S
Co82         O83   2.056       .  S
C84         C433   1.492       .  S
C85         C443   1.487       .  S
C86         C453   1.474       .  S
C87         C426   1.468       .  S
O88          C96   1.252       .  A
O88        Co108   1.965       .  S
O89          C97   1.271   1_556  A
O89        Co109   1.979       .  S
O90          C98   1.294       .  A
O90        Co110   2.096       .  S
O91          C99   1.280       .  A
O91        Co111   2.062       .  S
O92          C98   1.270       .  A
O92        Co730   1.909       .  S
O93         C720   1.256       .  A
O93        Co108   1.957       .  S
O94          C97   1.281       .  A
O94        Co111   2.035       .  S
O95          C96   1.255       .  A
O95        Co110   1.979       .  S
C96         C476   1.461       .  S
C97         C353   1.505   1_554  S
C98         C413   1.490       .  S
C99         O714   1.256   1_554  A
C99         C346   1.507       .  S
O100        C113   1.271       .  A
O100       Co729   2.034   1_554  S
O101        C735   1.300       .  A
O101       Co109   2.139       .  S
O102        C115   1.266       .  A
O102       Co110   1.974       .  S
O103        C116   1.246       .  A
O103       Co111   1.948       .  S
O104        C116   1.262       .  A
O104       Co109   2.015   1_554  S
O105        C115   1.280       .  A
O105       Co108   2.043       .  S
O106        C113   1.248       .  A
O106       Co111   1.935       .  S
O107        C114   1.257       .  A
O107       Co110   1.877       .  S
Co108       O721   2.034       .  S
Co108       O733   2.044       .  S
Co109       O713   1.909       .  S
Co109       O112   2.038   1_556  S
Co110       O733   2.002       .  S
Co111       O112   2.020       .  S
O112       Co729   2.044   1_554  S
O112       Co731   2.002   1_554  S
C113        C466   1.467       .  S
C114        O722   1.300       .  A
C114        C373   1.487       .  S
C115        C363   1.497       .  S
C116        C406   1.460       .  S
O117        C125   1.257       .  A
O117       Co137   1.963       .  S
O118        C126   1.269   1_556  A
O118       Co138   1.965       .  S
O119        C127   1.300       .  A
O119       Co139   2.138       .  S
O120        C128   1.276       .  A
O120       Co140   2.055       .  S
O121        C127   1.266       .  A
O121       Co759   1.900       .  S
O122        C749   1.258       .  A
O122       Co137   1.965       .  S
O123        C126   1.284       .  A
O123       Co140   2.049       .  S
O124        C125   1.272       .  A
O124       Co139   2.016       .  S
C125        C596   1.483       .  S
C126        C326   1.502       .  S
C127        C496   1.506       .  S
C128        O743   1.258   1_554  A
C128        C313   1.507       .  S
O129        C142   1.278       .  A
O129       Co758   2.056   1_554  S
O130        C764   1.295   1_554  A
O130       Co138   2.109   1_554  S
O131        C144   1.270       .  A
O131       Co139   1.989       .  S
O132        C145   1.245       .  A
O132       Co140   1.954       .  S
O133        C145   1.263       .  A
O133       Co138   2.022   1_554  S
O134        C144   1.276       .  A
O134       Co137   2.029       .  S
O135        C142   1.252       .  A
O135       Co140   1.943       .  S
O136        C143   1.271       .  A
O136       Co139   1.904       .  S
Co137       O750   2.056       .  S
Co137       O762   2.032       .  S
Co138       O742   1.901       .  S
Co138       O141   2.014   1_556  S
Co139       O762   2.021       .  S
Co140       O141   2.023       .  S
O141       Co758   2.032   1_554  S
O141       Co760   2.021   1_554  S
C142        C586   1.482       .  S
C143        O751   1.295       .  A
C143        C366   1.482       .  S
C144        C333   1.503       .  S
C145        C486   1.465       .  S
O146        C154   1.257       .  A
O146       Co166   1.971       .  S
O147        C155   1.274   1_556  A
O147       Co167   1.992       .  S
O148        C156   1.293       .  A
O148       Co168   2.087       .  S
O149        C157   1.281       .  A
O149       Co169   2.054       .  S
O150        C156   1.271       .  A
O150       Co788   1.888       .  S
O151        C778   1.263       .  A
O151       Co166   1.965       .  S
O152        C155   1.276       .  A
O152       Co169   2.025       .  S
O153        C154   1.265       .  A
O153       Co168   2.029       .  S
C154        C553   1.493       .  S
C155        C343   1.508       .  S
C156        C536   1.459       .  S
C157        O772   1.263   1_554  A
C157        C286   1.501       .  S
O158        C171   1.268       .  A
O158       Co787   2.018   1_554  S
O159        C793   1.297   1_554  A
O159       Co167   2.126   1_554  S
O160        C173   1.269       .  A
O160       Co168   1.969       .  S
O161        C174   1.258       .  A
O161       Co169   1.968       .  S
O162        C174   1.267       .  A
O162       Co167   2.013   1_554  S
O163        C173   1.283       .  A
O163       Co166   2.044       .  S
O164        C171   1.254       .  A
O164       Co169   1.952       .  S
O165        C172   1.265       .  A
O165       Co168   1.895       .  S
Co166       O779   2.018       .  S
Co166       O791   2.036       .  S
Co167       O771   1.888       .  S
Co167       O170   2.013   1_556  S
Co168       O791   2.009       .  S
Co169       O170   2.030       .  S
O170       Co787   2.036   1_554  S
O170       Co789   2.009   1_554  S
C171        C546   1.463       .  S
C172        O780   1.297       .  A
C172        C293   1.496       .  S
C173        C303   1.499       .  S
C174        C523   1.481       .  S
O175        C183   1.277       .  A
O175       Co195   2.031       .  S
O176        C184   1.256       .  A
O176       Co196   1.979   1_554  S
O177        C185   1.262       .  A
O177       Co197   1.874       .  S
O178        C186   1.253       .  A
O178       Co198   1.939       .  S
O179        C806   1.299   1_554  A
O179       Co196   2.142   1_554  S
O180        C186   1.273       .  A
O180       Co816   2.024   1_554  S
O181        C184   1.249       .  A
O181       Co198   1.953       .  S
O182        C183   1.269       .  A
O182       Co197   1.983       .  S
C183        C306   1.500       .  S
C184        C423   1.463       .  S
C185        O800   1.299       .  A
C185        C276   1.483       .  S
C186        C563   1.473       .  S
O187        C821   1.259       .  A
O187       Co195   1.965       .  S
O188        C201   1.263       .  A
O188       Co817   1.879       .  S
O189        C202   1.259       .  A
O189       Co197   1.985       .  S
O190        C203   1.282       .  A
O190       Co198   2.038       .  S
O191        C203   1.272   1_556  A
O191       Co196   1.979       .  S
O192        C202   1.255       .  A
O192       Co195   1.959       .  S
O193        C200   1.275       .  A
O193       Co198   2.048       .  S
O194        C201   1.299       .  A
O194       Co197   2.126       .  S
Co195       O801   2.024       .  S
Co195       O820   2.033       .  S
Co196       O809   1.879       .  S
Co196       O199   2.009   1_556  S
Co197       O820   2.024       .  S
Co198       O199   2.043       .  S
O199       Co816   2.033   1_554  S
O199       Co818   2.024   1_554  S
C200        O808   1.259   1_554  A
C200        C316   1.504       .  S
C201        C436   1.486       .  S
C202        C576   1.464       .  S
C203        C356   1.506       .  S
O204        C212   1.255       .  A
O204       Co224   1.971       .  S
O205        C213   1.267   1_556  A
O205       Co225   1.975       .  S
O206        C214   1.289       .  A
O206       Co226   2.079       .  S
O207        C215   1.276       .  A
O207       Co227   2.040       .  S
O208        C214   1.267       .  A
O208       Co846   1.887       .  S
O209        C836   1.261       .  A
O209       Co224   1.964       .  S
O210        C213   1.281       .  A
O210       Co227   2.044       .  S
O211        C212   1.257       .  A
O211       Co226   1.997       .  S
C212        C516   1.481       .  S
C213        C266   1.506       .  S
C214        C456   1.465       .  S
C215        O830   1.261   1_554  A
C215        C323   1.503       .  S
O216        C229   1.267       .  A
O216       Co845   2.004   1_554  S
O217        C851   1.294   1_554  A
O217       Co225   2.116   1_554  S
O218        C231   1.266       .  A
O218       Co226   1.974       .  S
O219        C232   1.252       .  A
O219       Co227   1.972       .  S
O220        C232   1.262       .  A
O220       Co225   2.005   1_554  S
O221        C231   1.280       .  A
O221       Co224   2.047       .  S
O222        C229   1.254       .  A
O222       Co227   1.935       .  S
O223        C230   1.261       .  A
O223       Co226   1.893       .  S
Co224       O837   2.004       .  S
Co224       O849   2.049       .  S
Co225       O829   1.887       .  S
Co225       O228   2.018   1_556  S
Co226       O849   2.009       .  S
Co227       O228   2.039       .  S
O228       Co845   2.049   1_554  S
O228       Co847   2.009   1_554  S
C229        C503   1.469       .  S
C230        O838   1.294       .  A
C230        C273   1.478       .  S
C231        C296   1.480       .  S
C232        C446   1.484       .  S
O233        C241   1.280       .  A
O233       Co253   2.047       .  S
O234        C242   1.264       .  A
O234       Co254   2.031   1_554  S
O235        C243   1.264       .  A
O235       Co255   1.876       .  S
O236        C244   1.249       .  A
O236       Co256   1.924       .  S
O237        C864   1.298   1_554  A
O237       Co254   2.124   1_554  S
O238        C244   1.270       .  A
O238       Co874   2.016   1_554  S
O239        C242   1.247       .  A
O239       Co256   1.960       .  S
O240        C241   1.265       .  A
O240       Co255   1.975       .  S
C241        C336   1.503       .  S
C242        C383   1.479       .  S
C243        O858   1.298       .  A
C243        C376   1.486       .  S
C244        C603   1.457       .  S
O245        C879   1.263       .  A
O245       Co253   1.970       .  S
O246        C259   1.269       .  A
O246       Co875   1.896       .  S
O247        C260   1.269       .  A
O247       Co255   2.022       .  S
O248        C261   1.281       .  A
O248       Co256   2.040       .  S
O249        C261   1.270   1_556  A
O249       Co254   1.975       .  S
O250        C260   1.260       .  A
O250       Co253   1.980       .  S
O251        C258   1.276       .  A
O251       Co256   2.041       .  S
O252        C259   1.292       .  A
O252       Co255   2.088       .  S
Co253       O859   2.016       .  S
Co253       O878   2.053       .  S
Co254       O867   1.896       .  S
Co254       O257   2.031   1_556  S
Co255       O878   1.996       .  S
Co256       O257   2.029       .  S
O257       Co874   2.053   1_554  S
O257       Co876   1.996   1_554  S
C258        O866   1.263   1_554  A
C258        C283   1.502       .  S
C259        C396   1.465       .  S
C260        C616   1.498       .  S
C261        C263   1.505       .  S
C262        C263   1.413       .  A
C262        C267   1.407       .  A
C262        F269   1.358       .  S
C263        C264   1.412   1_554  A
C264        C265   1.407       .  A
C264        F892   1.358       .  S
C265        C266   1.413   1_556  A
C265        F891   1.358       .  S
C266        C267   1.412       .  A
C267        F268   1.358       .  S
F270        C886   1.358       .  S
F271        C885   1.358       .  S
C272        C277   1.408   1_556  A
C272        C894   1.407       .  A
C272        F279   1.356   1_556  S
C273        C274   1.403       .  A
C273        C893   1.407       .  A
C274        C275   1.391       .  A
C274        F281   1.355       .  S
C275        C276   1.407       .  A
C275        F280   1.359       .  S
C276        C898   1.411       .  A
C277        C897   1.411   1_554  A
C277        F278   1.357       .  S
C282        C283   1.414       .  A
C282        C287   1.409   1_545  A
C282        F289   1.357       .  S
C283        C284   1.410   1_554  A
C284        C285   1.404   1_545  A
C284        F291   1.358       .  S
C285        C286   1.411   1_556  A
C285        F290   1.358       .  S
C286        C287   1.410       .  A
C287        F288   1.357       .  S
C292        C293   1.410       .  A
C292        C297   1.397       .  A
C292        F299   1.358       .  S
C293        C915   1.414       .  A
C294        C295   1.409       .  A
C294        C914   1.414   1_554  A
C294        F301   1.355       .  S
C295        C917   1.403   1_554  A
C295        F300   1.356       .  S
C296        C297   1.404       .  A
C296        C916   1.403       .  A
C297        F298   1.357       .  S
C302        C307   1.405       .  A
C302        C924   1.413       .  A
C302        F309   1.358       .  S
C303        C304   1.410       .  A
C303        C923   1.413       .  A
C304        C305   1.402       .  A
C304        F311   1.358       .  S
C305        C306   1.413       .  A
C305        F310   1.358       .  S
C306        C928   1.411       .  A
C307        C927   1.411       .  A
C307        F308   1.358       .  S
C312        C313   1.413   1_556  A
C312        C317   1.404   1_545  A
C312        F940   1.358       .  S
C313        C314   1.412       .  A
C314        C315   1.412   1_545  A
C314        F321   1.357       .  S
C315        C316   1.414       .  A
C315        F320   1.358       .  S
C316        C317   1.410   1_554  A
C317        F939   1.358       .  S
F318        C938   1.358       .  S
F319        C933   1.358       .  S
C322        C323   1.412       .  A
C322        C327   1.407   1_455  A
C322        F950   1.357       .  S
C323        C324   1.413   1_554  A
C324        C325   1.403   1_455  A
C324        F331   1.358       .  S
C325        C326   1.411   1_556  A
C325        F330   1.358       .  S
C326        C327   1.412       .  A
C327        F328   1.357       .  S
F329        C943   1.357       .  S
C332        C337   1.405       .  A
C332        C954   1.413   1_556  A
C332        F339   1.358       .  S
C333        C334   1.411       .  A
C333        C953   1.413       .  A
C334        C335   1.408       .  A
C334        F341   1.357       .  S
C335        C336   1.413       .  A
C335        F340   1.358       .  S
C336        C958   1.410       .  A
C337        C957   1.410   1_556  A
C337        F338   1.358       .  S
C342        C343   1.418       .  A
C342        C347   1.409   1_455  A
C342        F349   1.358       .  S
C343        C344   1.408   1_554  A
C344        C345   1.407   1_455  A
C344        F972   1.357       .  S
C345        C346   1.416   1_556  A
C345        F971   1.358       .  S
C346        C347   1.409       .  A
C347        F348   1.358       .  S
F350        C966   1.358       .  S
F351        C965   1.357       .  S
C352        C353   1.412   1_554  A
C352        C357   1.406       .  A
C352        F359   1.358       .  S
C353        C354   1.412       .  A
C354        C355   1.407       .  A
C354        F361   1.357       .  S
C355        C356   1.413   1_556  A
C355        F360   1.358       .  S
C356        C357   1.413       .  A
C357        F358   1.358       .  S
C362        C363   1.411       .  A
C362        C367   1.402       .  A
C362        F369   1.358       .  S
C363        C364   1.415       .  A
C364        C365   1.405       .  A
C364        F371   1.357       .  S
C365        C366   1.402       .  A
C365        F370   1.357       .  S
C366        C367   1.404       .  A
C367        F368   1.354       .  S
C372        C377   1.411       .  A
C372        C994   1.408   1_554  A
C372        F379   1.357       .  S
C373        C374   1.410       .  A
C373        C993   1.408       .  A
C374        C375   1.390       .  A
C374        F381   1.358       .  S
C375        C376   1.404       .  A
C375        F380   1.359       .  S
C376        C998   1.412       .  A
C377        C997   1.412   1_554  A
C377        F378   1.357       .  S
C382        C383   1.410       .  A
C382        C387   1.400       .  A
C382        F389   1.358       .  S
C383        C384   1.401       .  A
C384        C385   1.403       .  A
C384        F391   1.358       .  S
C385        C386   1.418       .  A
C385        F390   1.358       .  S
C386        C387   1.405       .  A
C387        F388   1.358       .  S
C392        C393   1.408       .  A
C392        C397   1.402       .  A
C392        F399   1.357       .  S
C393        C394   1.400       .  A
C394        C395   1.392       .  A
C394        F401   1.359       .  S
C395        C396   1.404       .  A
C395        F400   1.355       .  S
C396        C397   1.402       .  A
C397        F398   1.357       .  S
C402        C403   1.418       .  A
C402        C407   1.397       .  A
C402        F409   1.358       .  S
C403        C404   1.407       .  A
C404        C405   1.394       .  A
C404        F411   1.358       .  S
C405        C406   1.405       .  A
C405        F410   1.359       .  S
C406        C407   1.397       .  A
C407        F408   1.358       .  S
C412        C413   1.412       .  A
C412        C417   1.408       .  A
C412        F419   1.358       .  S
C413        C414   1.403       .  A
C414        C415   1.401       .  A
C414        F421   1.357       .  S
C415        C416   1.415       .  A
C415        F420   1.358       .  S
C416        C417   1.408       .  A
C417        F418   1.357       .  S
C422        C423   1.411       .  A
C422        C427   1.391       .  A
C422        F429   1.358       .  S
C423        C424   1.399       .  A
C424        C425   1.386       .  A
C424        F431   1.359       .  S
C425        C426   1.415       .  A
C425        F430   1.359       .  S
C426        C427   1.401       .  A
C427        F428   1.358       .  S
C432        C433   1.408       .  A
C432        C437   1.389       .  A
C432        F439   1.356       .  S
C433        C434   1.414       .  A
C434        C435   1.414       .  A
C434        F441   1.357       .  S
C435        C436   1.409       .  A
C435        F440   1.357       .  S
C436        C437   1.405       .  A
C437        F438   1.358       .  S
C442        C443   1.414       .  A
C442        C447   1.395       .  A
C442        F449   1.359       .  S
C443        C444   1.406       .  A
C444        C445   1.404       .  A
C444        F451   1.358       .  S
C445        C446   1.413       .  A
C445        F450   1.358       .  S
C446        C447   1.402       .  A
C447        F448   1.357       .  S
C452        C453   1.406       .  A
C452        C457   1.404       .  A
C452        F459   1.357       .  S
C453        C454   1.408       .  A
C454        C455   1.383       .  A
C454        F461   1.353       .  S
C455        C456   1.398       .  A
C455        F460   1.359       .  S
C456        C457   1.409       .  A
C457        F458   1.358       .  S
C462        C463   1.399       .  A
C462        C467   1.397       .  A
C462        F469   1.358       .  S
C463        C464   1.419       .  A
C464        C465   1.393       .  A
C464        F471   1.359       .  S
C465        C466   1.397       .  A
C465        F470   1.358       .  S
C466        C467   1.411       .  A
C467        F468   1.358       .  S
C472        C473   1.400       .  A
C472        C477   1.387       .  A
C472        F479   1.359       .  S
C473        C474   1.400       .  A
C474        C475   1.393       .  A
C474        F481   1.358       .  S
C475        C476   1.407       .  A
C475        F480   1.358       .  S
C476        C477   1.408       .  A
C477        F478   1.358       .  S
C482        C483   1.407       .  A
C482        C487   1.399       .  A
C482        F489   1.358       .  S
C483        C484   1.418       .  A
C484        C485   1.394       .  A
C484        F491   1.358       .  S
C485        C486   1.396       .  A
C485        F490   1.358       .  S
C486        C487   1.407       .  A
C487        F488   1.359       .  S
C492        C493   1.408       .  A
C492        C497   1.400       .  A
C492        F499   1.355       .  S
C493        C494   1.410       .  A
C494        C495   1.419       .  A
C494        F501   1.357       .  S
C495        C496   1.415       .  A
C495        F500   1.357       .  S
C496        C497   1.409       .  A
C497        F498   1.357       .  S
C502        C503   1.412       .  A
C502        C507   1.387       .  A
C502        F509   1.358       .  S
C503        C504   1.403       .  A
C504        C505   1.391       .  A
C504        F511   1.359       .  S
C505        C506   1.414       .  A
C505        F510   1.359       .  S
C506        C507   1.400       .  A
C507        F508   1.358       .  S
C512        C513   1.403       .  A
C512        C517   1.394       .  A
C512        F519   1.356       .  S
C513        C514   1.403       .  A
C514        C515   1.402       .  A
C514        F521   1.358       .  S
C515        C516   1.411       .  A
C515        F520   1.358       .  S
C516        C517   1.408       .  A
C517        F518   1.358       .  S
C522        C523   1.410       .  A
C522        C527   1.395       .  A
C522        F529   1.358       .  S
C523        C524   1.405       .  A
C524        C525   1.399       .  A
C524        F531   1.358       .  S
C525        C526   1.411       .  A
C525        F530   1.358       .  S
C526        C527   1.406       .  A
C527        F528   1.358       .  S
C532        C533   1.396       .  A
C532        C537   1.391       .  A
C532        F539   1.357       .  S
C533        C534   1.414       .  A
C534        C535   1.398       .  A
C534        F541   1.359       .  S
C535        C536   1.399       .  A
C535        F540   1.358       .  S
C536        C537   1.403       .  A
C537        F538   1.353       .  S
C542        C543   1.404       .  A
C542        C547   1.393       .  A
C542        F549   1.358       .  S
C543        C544   1.402       .  A
C544        C545   1.396       .  A
C544        F551   1.358       .  S
C545        C546   1.407       .  A
C545        F550   1.358       .  S
C546        C547   1.402       .  A
C547        F548   1.357       .  S
C552        C553   1.409       .  A
C552        C557   1.399       .  A
C552        F559   1.358       .  S
C553        C554   1.410       .  A
C554        C555   1.412       .  A
C554        F561   1.357       .  S
C555        C556   1.411       .  A
C555        F560   1.357       .  S
C556        C557   1.408       .  A
C557        F558   1.357       .  S
C562        C563   1.413       .  A
C562        C567   1.398       .  A
C562        F569   1.358       .  S
C563        C564   1.400       .  A
C564        C565   1.393       .  A
C564        F571   1.358       .  S
C565        C566   1.414       .  A
C565        F570   1.359       .  S
C566        C567   1.403       .  A
C567        F568   1.358       .  S
C572        C573   1.405       .  A
C572        C577   1.393       .  A
C572        F579   1.358       .  S
C573        C574   1.401       .  A
C574        C575   1.391       .  A
C574        F581   1.358       .  S
C575        C576   1.409       .  A
C575        F580   1.358       .  S
C576        C577   1.405       .  A
C577        F578   1.358       .  S
C582        C583   1.406       .  A
C582        C587   1.401       .  A
C582        F589   1.358       .  S
C583        C584   1.415       .  A
C584        C585   1.401       .  A
C584        F591   1.358       .  S
C585        C586   1.402       .  A
C585        F590   1.357       .  S
C586        C587   1.411       .  A
C587        F588   1.358       .  S
C592        C593   1.413       .  A
C592        C597   1.397       .  A
C592        F599   1.358       .  S
C593        C594   1.405       .  A
C594        C595   1.397       .  A
C594        F601   1.358       .  S
C595        C596   1.414       .  A
C595        F600   1.358       .  S
C596        C597   1.404       .  A
C597        F598   1.358       .  S
C602        C603   1.410       .  A
C602        C607   1.392       .  A
C602        F609   1.358       .  S
C603        C604   1.394       .  A
C604        C605   1.386       .  A
C604        F611   1.358       .  S
C605        C606   1.417       .  A
C605        F610   1.359       .  S
C606        C607   1.400       .  A
C607        F608   1.358       .  S
C612        C613   1.412       .  A
C612        C617   1.403       .  A
C612        F619   1.358       .  S
C613        C614   1.408       .  A
C614        C615   1.405       .  A
C614        F621   1.358       .  S
C615        C616   1.414       .  A
C615        F620   1.358       .  S
C616        C617   1.409       .  A
C617        F618   1.358       .  S
O622        C630   1.281       .  A
O622       Co642   2.036   1_565  S
O623        C631   1.251       .  A
O623       Co643   1.965   1_565  S
O624        C632   1.270       .  A
O624       Co644   1.886       .  S
O625        C633   1.257       .  A
O625       Co645   1.944       .  S
O626        C632   1.294       .  A
O626       Co643   2.101   1_565  S
O627        C633   1.274       .  A
O627       Co642   2.021   1_565  S
O628        C631   1.262       .  A
O628       Co645   1.995       .  S
O629        C630   1.272       .  A
O629       Co644   1.989       .  S
C630       C1177   1.495       .  S
C631       C1187   1.476       .  S
C632       C1164   1.460       .  S
C633       C1194   1.457       .  S
O634        C647   1.257       .  A
O634       Co642   1.954       .  S
O635        C648   1.251       .  A
O635       Co643   1.835       .  S
O636        C649   1.265       .  A
O636       Co644   2.026   1_545  S
O637        C650   1.276       .  A
O637       Co645   2.027   1_545  S
O638        C650   1.266       .  A
O638       Co643   1.966       .  S
O639        C649   1.254       .  A
O639       Co642   1.972       .  S
O640        C647   1.274       .  A
O640       Co645   2.030   1_545  S
O641        C648   1.303       .  A
O641       Co644   2.133   1_545  S
Co642       O646   2.006       .  S
Co643       O646   1.946       .  S
Co644       O646   2.021   1_565  S
Co645       O646   2.052   1_565  S
C647       C1214   1.483       .  S
C648       C1227   1.466       .  S
C649       C1234   1.495       .  S
C650       C1204   1.488       .  S
O651        C659   1.271       .  A
O651       Co671   1.865   1_655  S
O652        C660   1.262       .  A
O652       Co672   1.963       .  S
O653        C661   1.246       .  A
O653       Co673   1.936   1_655  S
O654        C662   1.281       .  A
O654       Co674   2.054   1_655  S
O655        C661   1.268       .  A
O655       Co672   1.985       .  S
O656        C662   1.271       .  A
O656       Co671   1.984   1_655  S
O657        C660   1.266       .  A
O657       Co674   1.996   1_655  S
O658        C659   1.295       .  A
O658       Co673   2.069   1_655  S
C659       C1094   1.449       .  S
C660       C1104   1.485       .  S
C661       C1084   1.475       .  S
C662       C1114   1.500       .  S
O663        C676   1.266       .  A
O663       Co671   2.012       .  S
O664        C677   1.274       .  A
O664       Co672   2.016   1_455  S
O665        C678   1.233       .  A
O665       Co673   1.913       .  S
O666        C679   1.269       .  A
O666       Co674   1.975       .  S
O667        C679   1.263       .  A
O667       Co672   1.979   1_455  S
O668        C678   1.268       .  A
O668       Co671   2.043       .  S
O669        C676   1.256       .  A
O669       Co674   1.973       .  S
O670        C677   1.265       .  A
O670       Co673   1.958       .  S
Co671       O675   1.967       .  S
Co672       O675   2.077   1_655  S
Co673       O675   2.046       .  S
Co674       O675   2.047       .  S
C676       C1134   1.470       .  S
C677       C1147   1.482       .  S
C678       C1154   1.466       .  S
C679       C1127   1.469       .  S
O680        C688   1.264       .  A
O680       Co700   1.863       .  S
O681        C689   1.266       .  A
O681       Co701   1.962       .  S
O682        C690   1.264       .  A
O682       Co702   2.005       .  S
O683        C691   1.277       .  A
O683       Co703   2.026       .  S
O684        C690   1.263       .  A
O684       Co701   1.970       .  S
O685        C691   1.271       .  A
O685       Co700   1.983       .  S
O686        C689   1.270       .  A
O686       Co703   2.002       .  S
O687        C688   1.299       .  A
O687       Co702   2.129       .  S
C688       C1014   1.465       .  S
C689       C1024   1.482       .  S
C690       C1007   1.490       .  S
C691       C1037   1.496       .  S
O692        C705   1.266       .  A
O692       Co700   1.995       .  S
O693        C706   1.275       .  A
O693       Co701   2.003       .  S
O694        C707   1.271       .  A
O694       Co702   1.897       .  S
O695        C708   1.272       .  A
O695       Co703   1.983       .  S
O696        C708   1.265       .  A
O696       Co701   1.972       .  S
O697        C707   1.296       .  A
O697       Co700   2.104       .  S
O698        C705   1.268       .  A
O698       Co703   1.997       .  S
O699        C706   1.278       .  A
O699       Co702   1.993       .  S
Co700       O704   1.958       .  S
Co701       O704   2.012       .  S
Co702       O704   2.018       .  S
Co703       O704   2.055       .  S
C705       C1054   1.493       .  S
C706       C1064   1.487       .  S
C707       C1074   1.474       .  S
C708       C1047   1.468       .  S
O709        C717   1.252       .  A
O709       Co729   1.965       .  S
O710        C718   1.271       .  A
O710       Co730   1.979       .  S
O711        C719   1.294       .  A
O711       Co731   2.096       .  S
O712        C720   1.280       .  A
O712       Co732   2.063       .  S
O713        C719   1.270       .  A
O714       Co729   1.957       .  S
O715        C718   1.281       .  A
O715       Co732   2.034       .  S
O716        C717   1.255       .  A
O716       Co731   1.979       .  S
C717       C1097   1.461       .  S
C718        C974   1.504       .  S
C719       C1034   1.490       .  S
C720        C967   1.507       .  S
O721        C734   1.271       .  A
O722       Co730   2.140       .  S
O723        C736   1.265       .  A
O723       Co731   1.973   1_554  S
O724        C737   1.246       .  A
O724       Co732   1.948       .  S
O725        C737   1.262       .  A
O725       Co730   2.015       .  S
O726        C736   1.280   1_556  A
O726       Co729   2.043       .  S
O727        C734   1.248       .  A
O727       Co732   1.935       .  S
O728        C735   1.257       .  A
O728       Co731   1.877       .  S
Co730       O733   2.038       .  S
Co732       O733   2.020       .  S
C734       C1087   1.467       .  S
C735        C994   1.487       .  S
C736        C984   1.497       .  S
C737       C1027   1.460       .  S
O738        C746   1.257       .  A
O738       Co758   1.964       .  S
O739        C747   1.269       .  A
O739       Co759   1.966       .  S
O740        C748   1.300       .  A
O740       Co760   2.138       .  S
O741        C749   1.276       .  A
O741       Co761   2.055       .  S
O742        C748   1.266       .  A
O743       Co758   1.965       .  S
O744        C747   1.284       .  A
O744       Co761   2.049       .  S
O745        C746   1.272       .  A
O745       Co760   2.016       .  S
C746       C1217   1.483       .  S
C747        C947   1.502       .  S
C748       C1117   1.506       .  S
C749        C934   1.507       .  S
O750        C763   1.278       .  A
O751       Co759   2.109       .  S
O752        C765   1.270       .  A
O752       Co760   1.989   1_554  S
O753        C766   1.245       .  A
O753       Co761   1.954       .  S
O754        C766   1.263       .  A
O754       Co759   2.022       .  S
O755        C765   1.276   1_556  A
O755       Co758   2.029       .  S
O756        C763   1.252       .  A
O756       Co761   1.943       .  S
O757        C764   1.271       .  A
O757       Co760   1.904       .  S
Co759       O762   2.014       .  S
Co761       O762   2.023       .  S
C763       C1207   1.482       .  S
C764        C987   1.482       .  S
C765        C954   1.503       .  S
C766       C1107   1.465       .  S
O767        C775   1.257       .  A
O767       Co787   1.971       .  S
O768        C776   1.274       .  A
O768       Co788   1.992       .  S
O769        C777   1.293       .  A
O769       Co789   2.088       .  S
O770        C778   1.281       .  A
O770       Co790   2.054       .  S
O771        C777   1.271       .  A
O772       Co787   1.965       .  S
O773        C776   1.276       .  A
O773       Co790   2.025       .  S
O774        C775   1.265       .  A
O774       Co789   2.029       .  S
C775       C1174   1.493       .  S
C776        C964   1.508       .  S
C777       C1157   1.459       .  S
C778        C907   1.501       .  S
O779        C792   1.268       .  A
O780       Co788   2.125       .  S
O781        C794   1.269       .  A
O781       Co789   1.970   1_554  S
O782        C795   1.258       .  A
O782       Co790   1.968       .  S
O783        C795   1.267       .  A
O783       Co788   2.013       .  S
O784        C794   1.283   1_556  A
O784       Co787   2.044       .  S
O785        C792   1.254       .  A
O785       Co790   1.952       .  S
O786        C793   1.264       .  A
O786       Co789   1.895       .  S
Co788       O791   2.013       .  S
Co790       O791   2.029       .  S
C792       C1167   1.463       .  S
C793        C914   1.496       .  S
C794        C924   1.500       .  S
C795       C1144   1.481       .  S
O796        C804   1.277       .  A
O796       Co816   2.032   1_554  S
O797        C805   1.256       .  A
O797       Co817   1.979       .  S
O798        C806   1.262       .  A
O798       Co818   1.874       .  S
O799        C807   1.253       .  A
O799       Co819   1.939       .  S
O800       Co817   2.142       .  S
O801        C807   1.273       .  A
O802        C805   1.249       .  A
O802       Co819   1.953       .  S
O803        C804   1.269       .  A
O803       Co818   1.983   1_554  S
C804        C927   1.500       .  S
C805       C1044   1.463       .  S
C806        C897   1.484       .  S
C807       C1184   1.473       .  S
O808       Co816   1.964       .  S
O809        C822   1.263       .  A
O810        C823   1.259       .  A
O810       Co818   1.985       .  S
O811        C824   1.282       .  A
O811       Co819   2.037       .  S
O812        C824   1.272       .  A
O812       Co817   1.979       .  S
O813        C823   1.255       .  A
O813       Co816   1.959       .  S
O814        C821   1.275       .  A
O814       Co819   2.048       .  S
O815        C822   1.299       .  A
O815       Co818   2.126       .  S
Co817       O820   2.009       .  S
Co819       O820   2.043       .  S
C821        C937   1.504       .  S
C822       C1057   1.486       .  S
C823       C1197   1.464       .  S
C824        C977   1.506       .  S
O825        C833   1.255       .  A
O825       Co845   1.971       .  S
O826        C834   1.267       .  A
O826       Co846   1.975       .  S
O827        C835   1.289       .  A
O827       Co847   2.078       .  S
O828        C836   1.276       .  A
O828       Co848   2.039       .  S
O829        C835   1.267       .  A
O830       Co845   1.964       .  S
O831        C834   1.281       .  A
O831       Co848   2.044       .  S
O832        C833   1.257       .  A
O832       Co847   1.996       .  S
C833       C1137   1.481       .  S
C834        C887   1.506       .  S
C835       C1077   1.465       .  S
C836        C944   1.503       .  S
O837        C850   1.267       .  A
O838       Co846   2.115       .  S
O839        C852   1.266   1_554  A
O839       Co847   1.974   1_554  S
O840        C853   1.252       .  A
O840       Co848   1.971       .  S
O841        C853   1.262       .  A
O841       Co846   2.005       .  S
O842        C852   1.280       .  A
O842       Co845   2.047       .  S
O843        C850   1.254       .  A
O843       Co848   1.935       .  S
O844        C851   1.260       .  A
O844       Co847   1.893       .  S
Co846       O849   2.018       .  S
Co848       O849   2.039       .  S
C850       C1124   1.469       .  S
C851        C894   1.478       .  S
C852        C917   1.480       .  S
C853       C1067   1.484       .  S
O854        C862   1.280   1_556  A
O854       Co874   2.047       .  S
O855        C863   1.264       .  A
O855       Co875   2.031       .  S
O856        C864   1.264       .  A
O856       Co876   1.876       .  S
O857        C865   1.249       .  A
O857       Co877   1.924       .  S
O858       Co875   2.124       .  S
O859        C865   1.270       .  A
O860        C863   1.247       .  A
O860       Co877   1.960       .  S
O861        C862   1.264       .  A
O861       Co876   1.974   1_554  S
C862        C957   1.502       .  S
C863       C1004   1.479       .  S
C864        C997   1.486       .  S
C865       C1224   1.456       .  S
O866       Co874   1.970       .  S
O867        C880   1.269       .  A
O868        C881   1.269       .  A
O868       Co876   2.022       .  S
O869        C882   1.281       .  A
O869       Co877   2.040       .  S
O870        C882   1.270       .  A
O870       Co875   1.976       .  S
O871        C881   1.259       .  A
O871       Co874   1.980       .  S
O872        C879   1.276       .  A
O872       Co877   2.040       .  S
O873        C880   1.292       .  A
O873       Co876   2.088       .  S
Co875       O878   2.031       .  S
Co877       O878   2.029       .  S
C879        C904   1.502       .  S
C880       C1017   1.465       .  S
C881       C1237   1.498       .  S
C882        C884   1.505       .  S
C883        C884   1.413       .  A
C883        C888   1.407       .  A
C883        F890   1.358       .  S
C884        C885   1.412       .  A
C885        C886   1.407       .  A
C886        C887   1.413       .  A
C887        C888   1.412       .  A
C888        F889   1.358       .  S
C893        C898   1.408       .  A
C893        F900   1.356       .  S
C894        C895   1.403       .  A
C895        C896   1.391       .  A
C895        F902   1.355       .  S
C896        C897   1.407       .  A
C896        F901   1.359       .  S
C898        F899   1.357       .  S
C903        C904   1.414       .  A
C903        C908   1.409   1_545  A
C903        F910   1.357       .  S
C904        C905   1.410       .  A
C905        C906   1.404   1_545  A
C905        F912   1.358       .  S
C906        C907   1.411       .  A
C906        F911   1.358       .  S
C907        C908   1.410       .  A
C908        F909   1.357       .  S
C913        C914   1.410       .  A
C913        C918   1.397       .  A
C913        F920   1.358       .  S
C915        C916   1.409       .  A
C915        F922   1.355       .  S
C916        F921   1.356       .  S
C917        C918   1.404       .  A
C918        F919   1.357       .  S
C923        C928   1.405       .  A
C923        F930   1.358       .  S
C924        C925   1.410       .  A
C925        C926   1.402       .  A
C925        F932   1.358   1_554  S
C926        C927   1.413       .  A
C926        F931   1.358   1_554  S
C928        F929   1.358       .  S
C933        C934   1.413       .  A
C933        C938   1.404   1_545  A
C934        C935   1.412       .  A
C935        C936   1.412   1_545  A
C935        F942   1.357       .  S
C936        C937   1.414       .  A
C936        F941   1.358       .  S
C937        C938   1.410       .  A
C943        C944   1.412       .  A
C943        C948   1.407   1_455  A
C944        C945   1.413       .  A
C945        C946   1.403   1_455  A
C945        F952   1.358       .  S
C946        C947   1.411       .  A
C946        F951   1.358       .  S
C947        C948   1.412       .  A
C948        F949   1.357       .  S
C953        C958   1.405       .  A
C953        F960   1.358       .  S
C954        C955   1.411       .  A
C955        C956   1.408       .  A
C955        F962   1.357       .  S
C956        C957   1.413       .  A
C956        F961   1.358       .  S
C958        F959   1.358       .  S
C963        C964   1.418       .  A
C963        C968   1.409   1_455  A
C963        F970   1.358       .  S
C964        C965   1.408       .  A
C965        C966   1.407   1_455  A
C966        C967   1.416       .  A
C967        C968   1.409       .  A
C968        F969   1.358       .  S
C973        C974   1.412       .  A
C973        C978   1.406       .  A
C973        F980   1.358       .  S
C974        C975   1.412       .  A
C975        C976   1.407       .  A
C975        F982   1.357       .  S
C976        C977   1.413       .  A
C976        F981   1.358       .  S
C977        C978   1.413       .  A
C978        F979   1.358       .  S
C983        C984   1.411   1_556  A
C983        C988   1.401       .  A
C983        F990   1.358       .  S
C984        C985   1.415       .  A
C985        C986   1.405       .  A
C985        F992   1.357       .  S
C986        C987   1.402   1_554  A
C986        F991   1.357       .  S
C987        C988   1.404       .  A
C988        F989   1.354       .  S
C993        C998   1.411       .  A
C993       F1000   1.357       .  S
C994        C995   1.410       .  A
C995        C996   1.390       .  A
C995       F1002   1.358       .  S
C996        C997   1.404       .  A
C996       F1001   1.359       .  S
C998        F999   1.357       .  S
C1003      C1004   1.410       .  A
C1003      C1008   1.400       .  A
C1003      F1010   1.358       .  S
C1004      C1005   1.401       .  A
C1005      C1006   1.403       .  A
C1005      F1012   1.358       .  S
C1006      C1007   1.418       .  A
C1006      F1011   1.358       .  S
C1007      C1008   1.405       .  A
C1008      F1009   1.358       .  S
C1013      C1014   1.408       .  A
C1013      C1018   1.402       .  A
C1013      F1020   1.357       .  S
C1014      C1015   1.400       .  A
C1015      C1016   1.392       .  A
C1015      F1022   1.359       .  S
C1016      C1017   1.404       .  A
C1016      F1021   1.355       .  S
C1017      C1018   1.402       .  A
C1018      F1019   1.357       .  S
C1023      C1024   1.418       .  A
C1023      C1028   1.397       .  A
C1023      F1030   1.358       .  S
C1024      C1025   1.407       .  A
C1025      C1026   1.394       .  A
C1025      F1032   1.358       .  S
C1026      C1027   1.405       .  A
C1026      F1031   1.359       .  S
C1027      C1028   1.397       .  A
C1028      F1029   1.358       .  S
C1033      C1034   1.412       .  A
C1033      C1038   1.409       .  A
C1033      F1040   1.358       .  S
C1034      C1035   1.403       .  A
C1035      C1036   1.401       .  A
C1035      F1042   1.357       .  S
C1036      C1037   1.415       .  A
C1036      F1041   1.358       .  S
C1037      C1038   1.408       .  A
C1038      F1039   1.357       .  S
C1043      C1044   1.411       .  A
C1043      C1048   1.391       .  A
C1043      F1050   1.358       .  S
C1044      C1045   1.399       .  A
C1045      C1046   1.386       .  A
C1045      F1052   1.359       .  S
C1046      C1047   1.415       .  A
C1046      F1051   1.359       .  S
C1047      C1048   1.401       .  A
C1048      F1049   1.358       .  S
C1053      C1054   1.407       .  A
C1053      C1058   1.390       .  A
C1053      F1060   1.356       .  S
C1054      C1055   1.414       .  A
C1055      C1056   1.414       .  A
C1055      F1062   1.357       .  S
C1056      C1057   1.409       .  A
C1056      F1061   1.357       .  S
C1057      C1058   1.405       .  A
C1058      F1059   1.358       .  S
C1063      C1064   1.414       .  A
C1063      C1068   1.395       .  A
C1063      F1070   1.359       .  S
C1064      C1065   1.406       .  A
C1065      C1066   1.404       .  A
C1065      F1072   1.358       .  S
C1066      C1067   1.413       .  A
C1066      F1071   1.358       .  S
C1067      C1068   1.402       .  A
C1068      F1069   1.357       .  S
C1073      C1074   1.406       .  A
C1073      C1078   1.403       .  A
C1073      F1080   1.357       .  S
C1074      C1075   1.408       .  A
C1075      C1076   1.383       .  A
C1075      F1082   1.353       .  S
C1076      C1077   1.398       .  A
C1076      F1081   1.359       .  S
C1077      C1078   1.409       .  A
C1078      F1079   1.358       .  S
C1083      C1084   1.399       .  A
C1083      C1088   1.397       .  A
C1083      F1090   1.358       .  S
C1084      C1085   1.419       .  A
C1085      C1086   1.393       .  A
C1085      F1092   1.359       .  S
C1086      C1087   1.397       .  A
C1086      F1091   1.358       .  S
C1087      C1088   1.411       .  A
C1088      F1089   1.358       .  S
C1093      C1094   1.399       .  A
C1093      C1098   1.386       .  A
C1093      F1100   1.359       .  S
C1094      C1095   1.400       .  A
C1095      C1096   1.393       .  A
C1095      F1102   1.358       .  S
C1096      C1097   1.407       .  A
C1096      F1101   1.358       .  S
C1097      C1098   1.408       .  A
C1098      F1099   1.358       .  S
C1103      C1104   1.407       .  A
C1103      C1108   1.399       .  A
C1103      F1110   1.358       .  S
C1104      C1105   1.418       .  A
C1105      C1106   1.394       .  A
C1105      F1112   1.358       .  S
C1106      C1107   1.396       .  A
C1106      F1111   1.358       .  S
C1107      C1108   1.407       .  A
C1108      F1109   1.359       .  S
C1113      C1114   1.408       .  A
C1113      C1118   1.400       .  A
C1113      F1120   1.355       .  S
C1114      C1115   1.410       .  A
C1115      C1116   1.419       .  A
C1115      F1122   1.357       .  S
C1116      C1117   1.415       .  A
C1116      F1121   1.357       .  S
C1117      C1118   1.409       .  A
C1118      F1119   1.357       .  S
C1123      C1124   1.412       .  A
C1123      C1128   1.388       .  A
C1123      F1130   1.358       .  S
C1124      C1125   1.403       .  A
C1125      C1126   1.391       .  A
C1125      F1132   1.359       .  S
C1126      C1127   1.414       .  A
C1126      F1131   1.359       .  S
C1127      C1128   1.400       .  A
C1128      F1129   1.358       .  S
C1133      C1134   1.403       .  A
C1133      C1138   1.394       .  A
C1133      F1140   1.356       .  S
C1134      C1135   1.403       .  A
C1135      C1136   1.402       .  A
C1135      F1142   1.358       .  S
C1136      C1137   1.411       .  A
C1136      F1141   1.357       .  S
C1137      C1138   1.408       .  A
C1138      F1139   1.358       .  S
C1143      C1144   1.411       .  A
C1143      C1148   1.396       .  A
C1143      F1150   1.358       .  S
C1144      C1145   1.405       .  A
C1145      C1146   1.399       .  A
C1145      F1152   1.358       .  S
C1146      C1147   1.411       .  A
C1146      F1151   1.358       .  S
C1147      C1148   1.406       .  A
C1148      F1149   1.358       .  S
C1153      C1154   1.396       .  A
C1153      C1158   1.391       .  A
C1153      F1160   1.357       .  S
C1154      C1155   1.414       .  A
C1155      C1156   1.398       .  A
C1155      F1162   1.359       .  S
C1156      C1157   1.399       .  A
C1156      F1161   1.358       .  S
C1157      C1158   1.403       .  A
C1158      F1159   1.353       .  S
C1163      C1164   1.404       .  A
C1163      C1168   1.393       .  A
C1163      F1170   1.358       .  S
C1164      C1165   1.402       .  A
C1165      C1166   1.396       .  A
C1165      F1172   1.358       .  S
C1166      C1167   1.406       .  A
C1166      F1171   1.358       .  S
C1167      C1168   1.402       .  A
C1168      F1169   1.357       .  S
C1173      C1174   1.409       .  A
C1173      C1178   1.399       .  A
C1173      F1180   1.358       .  S
C1174      C1175   1.410       .  A
C1175      C1176   1.412       .  A
C1175      F1182   1.357       .  S
C1176      C1177   1.411       .  A
C1176      F1181   1.357       .  S
C1177      C1178   1.408       .  A
C1178      F1179   1.357       .  S
C1183      C1184   1.412       .  A
C1183      C1188   1.398       .  A
C1183      F1190   1.358       .  S
C1184      C1185   1.400       .  A
C1185      C1186   1.393       .  A
C1185      F1192   1.358       .  S
C1186      C1187   1.414       .  A
C1186      F1191   1.359       .  S
C1187      C1188   1.403       .  A
C1188      F1189   1.358       .  S
C1193      C1194   1.405       .  A
C1193      C1198   1.392       .  A
C1193      F1200   1.358       .  S
C1194      C1195   1.401       .  A
C1195      C1196   1.391       .  A
C1195      F1202   1.358       .  S
C1196      C1197   1.408       .  A
C1196      F1201   1.358       .  S
C1197      C1198   1.405       .  A
C1198      F1199   1.358       .  S
C1203      C1204   1.406       .  A
C1203      C1208   1.401       .  A
C1203      F1210   1.358       .  S
C1204      C1205   1.415       .  A
C1205      C1206   1.401       .  A
C1205      F1212   1.358       .  S
C1206      C1207   1.402       .  A
C1206      F1211   1.357       .  S
C1207      C1208   1.411       .  A
C1208      F1209   1.358       .  S
C1213      C1214   1.412       .  A
C1213      C1218   1.397       .  A
C1213      F1220   1.358       .  S
C1214      C1215   1.405       .  A
C1215      C1216   1.397       .  A
C1215      F1222   1.358       .  S
C1216      C1217   1.414       .  A
C1216      F1221   1.358       .  S
C1217      C1218   1.404       .  A
C1218      F1219   1.358       .  S
C1223      C1224   1.410       .  A
C1223      C1228   1.393       .  A
C1223      F1230   1.358       .  S
C1224      C1225   1.394       .  A
C1225      C1226   1.386       .  A
C1225      F1232   1.358       .  S
C1226      C1227   1.417       .  A
C1226      F1231   1.359       .  S
C1227      C1228   1.400       .  A
C1228      F1229   1.358       .  S
C1233      C1234   1.412       .  A
C1233      C1238   1.403       .  A
C1233      F1240   1.358       .  S
C1234      C1235   1.408       .  A
C1235      C1236   1.405       .  A
C1235      F1242   1.358       .  S
C1236      C1237   1.414       .  A
C1236      F1241   1.358       .  S
C1237      C1238   1.409       .  A
C1238      F1239   1.358       .  S
