geometry optimzed in LAMMPS
_audit_creation_date              2020-11-30 
_audit_creation_method            'lammps2cif' 
_symmetry_space_group_name_H-M    'P1' 
_symmetry_Int_Tables_number       1 
_symmetry_cell_setting            triclinic 
loop_ 
_symmetry_equiv_pos_as_xyz 
  x,y,z 
_cell_length_a                    40.3738359 
_cell_length_b                    40.13638243493422 
_cell_length_c                    54.13139681848657 
_cell_angle_alpha                 89.25474105264215 
_cell_angle_beta                  89.72925620706687 
_cell_angle_gamma                 90.14993444277277 
loop_ 
_atom_site_label 
_atom_site_type_symbol 
_atom_site_fract_x 
_atom_site_fract_y 
_atom_site_fract_z 
_atom_site_charge 
C1          C  0.38041658  0.48942472  0.35016710     0.03000
C2          C  0.35799503  0.01587163  0.35057272    -0.13200
C3          C  0.35852738  0.03977090  0.36960048     0.00500
C4          C  0.38267748  0.03553226  0.38845794    -0.11700
C5          C  0.40410684  0.00764154  0.38891255     0.03000
C6          C  0.40195724  0.48445988  0.36984358    -0.11100
H7          H  0.34023764  0.01685731  0.33578727     0.08500
H8          H  0.38532507  0.05368448  0.40283860     0.06100
H9          H  0.41709962  0.46223563  0.37014967     0.05900
O10         O  0.41511157  0.38473258  0.26282031    -0.74600
O11         O  0.41837304  0.31581972  0.21382690    -0.74600
O12         O  0.41732335  0.38338675  0.21236611    -0.74700
O13         O  0.41715386  0.31750485  0.26405423    -0.74700
O14         O  0.36208628  0.31605793  0.26408545    -0.74700
O15         O  0.36210663  0.38214564  0.21137430    -0.74600
O16         O  0.36339633  0.31464771  0.21375360    -0.74600
O17         O  0.35999284  0.38321994  0.26165941    -0.74700
Ni18       Ni  0.41894783  0.35045397  0.23827171     1.25400
Ni19       Ni  0.35995810  0.34896571  0.23764657     1.25400
C20         C  0.38680025  0.39447938  0.27086203     0.87600
C21         C  0.39113648  0.30397060  0.20550204     0.87500
C22         C  0.38992026  0.39329984  0.20310014     0.87500
C23         C  0.38986560  0.30625622  0.27304432     0.87700
C24         C  0.40227158  0.22052006  0.36002637     0.03000
C25         C  0.42646381  0.19561107  0.35948342    -0.13200
C26         C  0.43746516  0.17979738  0.38138264     0.00500
C27         C  0.42262866  0.18931852  0.40391771    -0.11700
C28         C  0.39612815  0.21223279  0.40460867     0.03000
C29         C  0.38592662  0.22729153  0.38223378    -0.11100
H30         H  0.43707388  0.18973477  0.34172893     0.08500
H31         H  0.43201152  0.17934713  0.42114000     0.06100
H32         H  0.36562090  0.24479075  0.38191034     0.05900
C33         C  0.38155596  0.20926350  0.12519454     0.03000
C34         C  0.39810197  0.21688420  0.10306553    -0.13200
C35         C  0.39084884  0.19963036  0.08127541     0.00500
C36         C  0.36554579  0.17523117  0.08204053    -0.11700
C37         C  0.35103753  0.16464991  0.10468273     0.03000
C38         C  0.36021346  0.18167044  0.12626370    -0.11100
H39         H  0.41625527  0.23679478  0.10285218     0.08500
H40         H  0.35745307  0.16450625  0.06489430     0.06100
H41         H  0.35020874  0.17452968  0.14410768     0.05900
C42         C  0.40830223  0.48536977  0.12060403     0.03000
C43         C  0.39326673  0.47961646  0.09784769    -0.13200
C44         C  0.40346766  0.99665972  0.07627334     0.00500
C45         C  0.42970163  0.01977092  0.07787159    -0.11700
C46         C  0.44299974  0.02904971  0.10095605     0.03000
C47         C  0.43219797  0.01082569  0.12220578    -0.11100
H48         H  0.37333975  0.46153724  0.09710950     0.08500
H49         H  0.43946631  0.03046283  0.06095117     0.06100
H50         H  0.44218004  0.01568690  0.14021642     0.05900
C51         C  0.27939446  0.99491033  0.00840747     0.02100
C52         C  0.30682788  0.47496431  0.00149233     0.02100
C53         C  0.30340869  0.45265307  0.98201365    -0.18400
C54         C  0.27338644  0.44989017  0.96932909     0.02100
C55         C  0.24579204  0.46972827  0.97609387     0.02100
C56         C  0.24914615  0.99192724  0.99579392    -0.18400
H57         H  0.22823441  0.00704732  0.00127450     0.04100
H58         H  0.32437975  0.43766118  0.97642982     0.04100
C59         C  0.14148706  0.46287727  0.85720618     0.03000
C60         C  0.15842538  0.46674158  0.87937584    -0.13200
C61         C  0.14789723  0.44994624  0.90100384     0.00500
C62         C  0.11962581  0.42916588  0.89981170    -0.11700
C63         C  0.10398016  0.42242449  0.87696582     0.03000
C64         C  0.11598180  0.43933761  0.85571233    -0.11100
H65         H  0.17901593  0.48408316  0.87990351     0.08500
H66         H  0.10974086  0.41883302  0.91683474     0.06100
H67         H  0.10500263  0.43575400  0.83780555     0.05900
C68         C  0.16298698  0.24015789  0.85498470     0.03000
C69         C  0.14570148  0.23374674  0.87690695    -0.13200
C70         C  0.14189322  0.25838292  0.89504849     0.00500
C71         C  0.15902733  0.28909283  0.89132009    -0.11700
C72         C  0.18110545  0.29391598  0.87098154     0.03000
C73         C  0.18179274  0.26923101  0.85270957    -0.11100
H74         H  0.13445339  0.20941268  0.87921355     0.08500
H75         H  0.15505278  0.30920088  0.90401440     0.06100
H76         H  0.19729171  0.27179282  0.83652114     0.05900
O77         O  0.12921507  0.13574726  0.76704917    -0.74600
O78         O  0.12423308  0.06753082  0.71773029    -0.74600
O79         O  0.12742003  0.06844418  0.76773183    -0.74700
O80         O  0.12489603  0.13460911  0.71709231    -0.74700
O81         O  0.17969704  0.13391250  0.71372391    -0.74700
O82         O  0.18248859  0.06780636  0.76648402    -0.74600
O83         O  0.17927221  0.06641406  0.71639266    -0.74600
O84         O  0.18404538  0.13513400  0.76407916    -0.74700
Ni85       Ni  0.12453519  0.10163032  0.74252235     1.25400
Ni86       Ni  0.18336233  0.10082537  0.74007877     1.25400
C87         C  0.15768082  0.14659508  0.77387223     0.87600
C88         C  0.15127045  0.05616186  0.70857949     0.87500
C89         C  0.15500956  0.05725778  0.77578860     0.87500
C90         C  0.15141785  0.14472530  0.70636941     0.87700
C91         C  0.14829412  0.45836837  0.63100181     0.03000
C92         C  0.17102687  0.43221092  0.62967504    -0.13200
C93         C  0.17663453  0.41492264  0.60742020     0.00500
C94         C  0.15649830  0.42342367  0.58686962    -0.11700
C95         C  0.13234959  0.44881103  0.58848618     0.03000
C96         C  0.12897133  0.46633203  0.61055140    -0.11100
H97         H  0.18446143  0.42618780  0.64632565     0.08500
H98         H  0.15959694  0.41090812  0.56949835     0.06100
H99         H  0.11185182  0.48704607  0.61160533     0.05900
C100        C  0.12926121  0.22982601  0.61999275     0.03000
C101        C  0.10639056  0.25609930  0.62004487    -0.13200
C102        C  0.09474998  0.27055214  0.59776737     0.00500
C103        C  0.10761534  0.25785213  0.57541237    -0.11700
C104        C  0.13368390  0.23456622  0.57517813     0.03000
C105        C  0.14445040  0.22098080  0.59778961    -0.11100
H106        H  0.09769296  0.26433308  0.63780292     0.08500
H107        H  0.09790566  0.26597806  0.55785190     0.06100
H108        H  0.16454221  0.20324120  0.59830394     0.05900
C109        C  0.01495521  0.20639482  0.00722752     0.02100
C110        C  0.48659501  0.22696247  0.00376192     0.02100
C111        C  0.48714662  0.25133210  0.98490513    -0.18400
C112        C  0.01489700  0.25529365  0.96940835     0.02100
C113        C  0.04265797  0.23421856  0.97229449     0.02100
C114        C  0.04253317  0.21015408  0.99138553    -0.18400
H115        H  0.06381886  0.19405296  0.99375764     0.04100
H116        H  0.46579301  0.26721598  0.98210618     0.04100
O117        O  0.36206759  0.33239304  0.71131579    -0.74600
O118        O  0.42768721  0.33714196  0.76275123    -0.74600
O119        O  0.36085017  0.33593281  0.76103006    -0.74700
O120        O  0.42898111  0.33176193  0.71285033    -0.74700
O121        O  0.42979131  0.38692175  0.70883369    -0.74700
O122        O  0.35992590  0.39118819  0.75822308    -0.74600
O123        O  0.42752648  0.39237531  0.75898137    -0.74600
O124        O  0.36274733  0.38781734  0.70836199    -0.74700
Ni125      Ni  0.39497434  0.33239882  0.73711335     1.25400
Ni126      Ni  0.39508740  0.39158906  0.73353907     1.25400
C127        C  0.35148209  0.35966496  0.70152775     0.87600
C128        C  0.43838505  0.36582452  0.76938725     0.87500
C129        C  0.34860127  0.36376842  0.76757361     0.87500
C130        C  0.44029053  0.35810099  0.70229366     0.87700
C131        C  0.25023732  0.35063614  0.84586540     0.03000
C132        C  0.26089733  0.36536404  0.86757842    -0.13200
C133        C  0.24319823  0.36146536  0.88965506     0.00500
C134        C  0.21605685  0.33932616  0.89067675    -0.11700
C135        C  0.20536473  0.32268579  0.86925863     0.03000
C136        C  0.22126612  0.33109633  0.84651646    -0.11100
H137        H  0.28330404  0.38032827  0.86734974     0.08500
H138        H  0.20393862  0.33477968  0.90821642     0.06100
H139        H  0.21228655  0.32158005  0.82922413     0.05900
C140        C  0.02457197  0.37990868  0.85405528     0.03000
C141        C  0.05215071  0.40110782  0.85522230    -0.13200
C142        C  0.07434014  0.39944034  0.87544689     0.00500
C143        C  0.06790180  0.37527743  0.89415241    -0.11700
C144        C  0.03849124  0.35620225  0.89425460     0.03000
C145        C  0.01708019  0.35903381  0.87403843    -0.11100
H146        H  0.05568991  0.41858138  0.84012798     0.08500
H147        H  0.08578240  0.37090079  0.90860689     0.06100
H148        H  0.99438093  0.34462092  0.87348763     0.05900
C149        C  0.25403440  0.36411844  0.62383692     0.03000
C150        C  0.22979328  0.38896609  0.62361326    -0.13200
C151        C  0.20395128  0.38917065  0.60596143     0.00500
C152        C  0.20505231  0.36467988  0.58726300    -0.11700
C153        C  0.23050381  0.34060604  0.58690564     0.03000
C154        C  0.25433355  0.34020095  0.60551509    -0.11100
H155        H  0.23187087  0.40808501  0.63735959     0.08500
H156        H  0.18625374  0.36363674  0.57315042     0.06100
H157        H  0.27381024  0.32163912  0.60537784     0.05900
C158        C  0.02983368  0.33393624  0.61984104     0.03000
C159        C  0.02676921  0.35426626  0.59885050    -0.13200
C160        C  0.04354252  0.34671075  0.57688264     0.00500
C161        C  0.06463540  0.31889048  0.57650141    -0.11700
C162        C  0.07006056  0.29894319  0.59787603     0.03000
C163        C  0.05179094  0.30682890  0.61940547    -0.11100
H164        H  0.01024751  0.37548636  0.59941727     0.08500
H165        H  0.07679639  0.31345318  0.55930907     0.06100
H166        H  0.05330851  0.29159156  0.63590687     0.05900
C167        C  0.00968352  0.08784026  0.12640034     0.03000
C168        C  0.48747711  0.06115631  0.12413813    -0.13200
C169        C  0.46787687  0.05735320  0.10276691     0.00500
C170        C  0.47205149  0.08137045  0.08342245    -0.11700
C171        C  0.49632915  0.10674501  0.08477574     0.03000
C172        C  0.01476719  0.10959657  0.10647587    -0.11100
H173        H  0.48624347  0.04351413  0.13930106     0.08500
H174        H  0.45648098  0.08084587  0.06729542     0.06100
H175        H  0.03370199  0.12867327  0.10785652     0.05900
C176        C  0.28156210  0.10659175  0.12777667     0.03000
C177        C  0.28060754  0.08295674  0.10921396    -0.13200
C178        C  0.30201952  0.08538700  0.08891246     0.00500
C179        C  0.32518232  0.11169035  0.08752642    -0.11700
C180        C  0.32631460  0.13638550  0.10595772     0.03000
C181        C  0.30345887  0.13367608  0.12579804    -0.11100
H182        H  0.26226701  0.06319565  0.11019851     0.08500
H183        H  0.34219545  0.11247771  0.07205480     0.06100
H184        H  0.30190319  0.15265182  0.13973089     0.05900
O185        O  0.17947328  0.13673359  0.26326756    -0.74600
O186        O  0.11000898  0.13130508  0.21460317    -0.74600
O187        O  0.11254454  0.13970440  0.26446047    -0.74700
O188        O  0.17643288  0.13022981  0.21362384    -0.74700
O189        O  0.17481220  0.07490498  0.21772723    -0.74700
O190        O  0.11104172  0.08490744  0.27078886    -0.74600
O191        O  0.10802880  0.07644244  0.22094400    -0.74600
O192        O  0.17754784  0.08137450  0.26760925    -0.74700
Ni193      Ni  0.14461274  0.13644656  0.23885895     1.25400
Ni194      Ni  0.14274447  0.07741378  0.24445420     1.25400
C195        C  0.18956326  0.10957638  0.27351085     0.87600
C196        C  0.09863374  0.10240393  0.20909525     0.87500
C197        C  0.10200387  0.11448348  0.27674304     0.87500
C198        C  0.18547480  0.10141459  0.20665902     0.87700
C199        C  0.01527716  0.13293785  0.36119422     0.03000
C200        C  0.02206476  0.11423733  0.38238054    -0.13200
C201        C  0.49924345  0.11217296  0.40207062     0.00500
C202        C  0.47015114  0.13164112  0.40041876    -0.11700
C203        C  0.46567377  0.15522453  0.38098832     0.03000
C204        C  0.48855862  0.15499078  0.36115704    -0.11100
H205        H  0.04503614  0.10044206  0.38279014     0.08500
H206        H  0.45078355  0.12809451  0.41400706     0.06100
H207        H  0.48609235  0.17153951  0.34540550     0.05900
C208        C  0.28808380  0.09859873  0.34959915     0.03000
C209        C  0.28291415  0.11662428  0.37096618    -0.13200
C210        C  0.30333314  0.11234638  0.39140417     0.00500
C211        C  0.32782972  0.08739132  0.39122657    -0.11700
C212        C  0.33356620  0.06807040  0.36979084     0.03000
C213        C  0.31387365  0.07533153  0.34866906    -0.11100
H214        H  0.26278664  0.13445995  0.37162519     0.08500
H215        H  0.34183262  0.08340908  0.40792634     0.06100
H216        H  0.31745100  0.06285281  0.33135798     0.05900
C217        C  0.01506638  0.00736456  0.47553953     0.02100
C218        C  0.49411615  0.48020515  0.47004963     0.02100
C219        C  0.49782899  0.44997673  0.48305828    -0.18400
C220        C  0.02062193  0.44706891  0.50255039     0.02100
C221        C  0.04003700  0.47522581  0.50905063     0.02100
C222        C  0.03737388  0.00490321  0.49522678    -0.18400
H223        H  0.05320177  0.02590592  0.49946088     0.04100
H224        H  0.48280440  0.42872822  0.47804285     0.04100
C225        C  0.27298171  0.19898820  0.47291160     0.02100
C226        C  0.29790316  0.22195537  0.48008669     0.02100
C227        C  0.29066143  0.24534402  0.49839576    -0.18400
C228        C  0.25918865  0.24642808  0.50963064     0.02100
C229        C  0.23444142  0.22325714  0.50250339     0.02100
C230        C  0.24170201  0.19982603  0.48429772    -0.18400
H231        H  0.22266561  0.18245733  0.47864429     0.04100
H232        H  0.30959916  0.26292156  0.50386786     0.04100
C233        C  0.29779938  0.13433101  0.41277512    -0.06300
C234        C  0.28827836  0.12031331  0.43561393    -0.17400
C235        C  0.27887573  0.14049094  0.45542140     0.10900
C236        C  0.27878471  0.17559560  0.45226018    -0.06200
C237        C  0.28685808  0.18933086  0.42905004    -0.17500
C238        C  0.29729315  0.16936695  0.40966504     0.10900
S239        S  0.26735396  0.11970400  0.48398365    -0.32400
S240        S  0.31007257  0.19027449  0.38146779    -0.32400
H241        H  0.33438732  0.16679287  0.37512308     0.28900
H242        H  0.27686708  0.14518370  0.50001217     0.28900
H243        H  0.28766898  0.09345497  0.43790399     0.19500
H244        H  0.28632556  0.21612181  0.42631404     0.19500
C245        C  0.00531583  0.08752011  0.42278820    -0.06300
C246        C  0.52324208  0.05830799  0.41736483    -0.17400
C247        C  0.53096380  0.03476884  0.43549408     0.10900
C248        C  0.01605080  0.03690218  0.45890757    -0.06200
C249        C  0.99838988  0.06569110  0.46494873    -0.17500
C250        C  0.99457078  0.09184587  0.44766344     0.10900
S251        S  0.55977428  0.50227110  0.42741675    -0.32400
S252        S  0.97788921  0.13021829  0.45930991    -0.32400
H253        H  0.99770155  0.15088154  0.44408709     0.28900
H254        H  0.57109466  0.49586563  0.45150314     0.28900
H255        H  0.53164920  0.05322048  0.39881486     0.19500
H256        H  0.98790866  0.06794360  0.48331674     0.19500
C257        C  0.03590001  0.12837310  0.33882919    -0.06300
C258        C  0.05548723  0.15489527  0.33035708    -0.17400
C259        C  0.07735380  0.15120380  0.31037373     0.10900
C260        C  0.07942651  0.12000397  0.29818691    -0.06200
C261        C  0.05952071  0.09350370  0.30679719    -0.17500
C262        C  0.03765968  0.09741602  0.32670397     0.10900
S263        S  0.10372100  0.18624040  0.30219737    -0.32400
S264        S  0.01234794  0.06202599  0.33551402    -0.32400
H265        H  0.98504159  0.08049369  0.34386325     0.28900
H266        H  0.08810638  0.21010034  0.31704332     0.28900
H267        H  0.05433898  0.17829460  0.34005529     0.19500
H268        H  0.06056307  0.06962116  0.29772627     0.19500
C269        C  0.26388132  0.10235412  0.32936287    -0.06300
C270        C  0.23097623  0.09334294  0.33458239    -0.17400
C271        C  0.20619942  0.09696948  0.31683852     0.10900
C272        C  0.21439300  0.10987013  0.29325207    -0.06200
C273        C  0.24716439  0.11937932  0.28797787    -0.17500
C274        C  0.27201274  0.11598039  0.30589405     0.10900
S275        S  0.16396612  0.08557052  0.32454232    -0.32400
S276        S  0.31328802  0.12965200  0.29781337    -0.32400
H277        H  0.32250938  0.13925061  0.32170813     0.28900
H278        H  0.17004281  0.07440689  0.34883525     0.28900
H279        H  0.22478955  0.08336859  0.35271739     0.19500
H280        H  0.25348843  0.12897158  0.26974802     0.19500
C281        C  0.25748367  0.10420197  0.14827561    -0.06300
C282        C  0.22901920  0.12384365  0.14672284    -0.17400
C283        C  0.20426567  0.12172477  0.16484147     0.10900
C284        C  0.20837594  0.09990393  0.18535548    -0.06200
C285        C  0.23630030  0.07922873  0.18641866    -0.17500
C286        C  0.26096953  0.08121610  0.16810635     0.10900
S287        S  0.16681742  0.14591441  0.16095013    -0.32400
S288        S  0.29631423  0.05408749  0.17122907    -0.32400
H289        H  0.31901306  0.07433112  0.15817669     0.28900
H290        H  0.17590775  0.16205451  0.13870687     0.33300
H291        H  0.22607114  0.14051168  0.13099561     0.19500
H292        H  0.23954695  0.06242764  0.20204800     0.19500
C293        C  0.02992336  0.09154476  0.14893165    -0.06300
C294        C  0.05095263  0.06531996  0.15548203    -0.17400
C295        C  0.07383280  0.06849056  0.17452221     0.10900
C296        C  0.07514642  0.09831933  0.18833201    -0.06200
C297        C  0.05367267  0.12450933  0.18196441    -0.17500
C298        C  0.03100488  0.12140617  0.16256014     0.10900
S299        S  0.10237441  0.03438417  0.17853414    -0.32400
S300        S  0.50385880  0.15619205  0.15640567    -0.32400
H301        H  0.47754654  0.13722433  0.14701642     0.28900
H302        H  0.13046006  0.05517049  0.17946949     0.28900
H303        H  0.05078982  0.04270418  0.14473950     0.19500
H304        H  0.05424868  0.14740938  0.19233813     0.19500
C305        C  0.02413788  0.41496846  0.51650909    -0.06300
C306        C  0.05594171  0.40128441  0.51910092    -0.17400
C307        C  0.06338702  0.37936148  0.53857468     0.10900
C308        C  0.03759873  0.36761205  0.55429818    -0.06200
C309        C  0.00486740  0.37746447  0.54907560    -0.17500
C310        C  0.99792441  0.40155121  0.53083200     0.10900
S311        S  0.10670485  0.37125851  0.54389535    -0.32400
S312        S  0.45620648  0.41725249  0.52784290    -0.32400
H313        H  0.44134813  0.39594243  0.54552153     0.28900
H314        H  0.10447239  0.37394413  0.56973375     0.28900
H315        H  0.07598132  0.41079815  0.50762255     0.19500
H316        H  0.48482849  0.36758938  0.56030421     0.19500
C317        C  0.23404760  0.31632411  0.56670285    -0.06300
C318        C  0.24360590  0.32813145  0.54322434    -0.17400
C319        C  0.25280380  0.30619129  0.52445023     0.10900
C320        C  0.25252961  0.27137949  0.52920845    -0.06200
C321        C  0.24366215  0.25973894  0.55293182    -0.17500
C322        C  0.23390862  0.28163543  0.57146514     0.10900
S323        S  0.26465502  0.32453662  0.49505754    -0.32400
S324        S  0.22166860  0.26381808  0.60088686    -0.32400
H325        H  0.19915213  0.28914295  0.60696472     0.28900
H326        H  0.25504958  0.29788498  0.48014036     0.28900
H327        H  0.24472269  0.35475474  0.53968447     0.19500
H328        H  0.24363475  0.23320094  0.55688368     0.19500
C329        C  0.46450407  0.35355340  0.68162653    -0.06300
C330        C  0.46584015  0.32177210  0.67086977    -0.17400
C331        C  0.48659787  0.31490686  0.65091720     0.10900
C332        C  0.50805264  0.33990150  0.64156920    -0.06200
C333        C  0.50738352  0.37160840  0.65238826    -0.17500
C334        C  0.48571515  0.37879273  0.67202808     0.10900
S335        S  0.98289271  0.27413797  0.63746982    -0.32400
S336        S  0.48702819  0.42018291  0.68429386    -0.32400
H337        H  0.45432834  0.42724637  0.67705642     0.28900
H338        H  0.98621923  0.28533800  0.61285021     0.28900
H339        H  0.44957070  0.30202137  0.67743056     0.19500
H340        H  0.52366990  0.39104168  0.64530419     0.19500
C341        C  0.46263880  0.36923925  0.78987948    -0.06300
C342        C  0.46401132  0.39987609  0.80233820    -0.17400
C343        C  0.48414836  0.40433088  0.82302947     0.10900
C344        C  0.50391854  0.37775860  0.83157087    -0.06200
C345        C  0.50333423  0.34744008  0.81888833    -0.17500
C346        C  0.48348585  0.34303756  0.79802340     0.10900
S347        S  0.48239749  0.44401983  0.83823259    -0.32400
S348        S  0.48707146  0.30391501  0.78228561    -0.32400
H349        H  0.48764099  0.31858213  0.75852114     0.28900
H350        H  0.48744152  0.43151678  0.86229534     0.28900
H351        H  0.44837598  0.42037647  0.79648308     0.19500
H352        H  0.01885810  0.32707282  0.82520572     0.19500
C353        C  0.32090956  0.36263745  0.78603779    -0.06300
C354        C  0.30626715  0.33130848  0.79115655    -0.17400
C355        C  0.28281139  0.32670908  0.80995067     0.10900
C356        C  0.27139563  0.35444364  0.82331079    -0.06200
C357        C  0.28416209  0.38621756  0.81707952    -0.17500
C358        C  0.30929560  0.39048740  0.79928386     0.10900
S359        S  0.27113667  0.28426093  0.81724915    -0.32400
S360        S  0.32684341  0.43156828  0.79587691    -0.32400
H361        H  0.35956635  0.42048371  0.79937485     0.28900
H362        H  0.27376561  0.28785537  0.84298374     0.28900
H363        H  0.31432791  0.30946451  0.78126070     0.19500
H364        H  0.27579921  0.40776243  0.82721419     0.19500
C365        C  0.27945537  0.36297170  0.64329154    -0.06300
C366        C  0.27663583  0.33859230  0.66200870    -0.17400
C367        C  0.29941704  0.33696012  0.68142165     0.10900
C368        C  0.32632580  0.35954957  0.68175158    -0.06200
C369        C  0.32901192  0.38387883  0.66289375    -0.17500
C370        C  0.30608042  0.38571889  0.64367661     0.10900
S371        S  0.29148602  0.30707346  0.70588997    -0.32400
S372        S  0.31232139  0.41749461  0.62020264    -0.32400
H373        H  0.29801300  0.39987411  0.60067113     0.28900
H374        H  0.30025285  0.32868008  0.72507406     0.28900
H375        H  0.25595587  0.32131496  0.66184569     0.19500
H376        H  0.34947025  0.40142323  0.66292327     0.19500
C377        C  0.01572590  0.18067587  0.02733210    -0.06300
C378        C  0.51314065  0.14690648  0.02111644    -0.17400
C379        C  0.50718534  0.12217866  0.03922747     0.10900
C380        C  0.00263368  0.13134803  0.06423321    -0.06200
C381        C  0.00622208  0.16518764  0.07031745    -0.17500
C382        C  0.01377390  0.18951215  0.05243725     0.10900
S383        S  0.50635517  0.07958859  0.02911004    -0.32400
S384        S  0.02042857  0.23148183  0.06285715    -0.32400
H385        H  0.04032642  0.24175283  0.04276150     0.28900
H386        H  0.52201692  0.06649279  0.05024485     0.28900
H387        H  0.51482772  0.13987999  0.00188793     0.19500
H388        H  0.00326358  0.17287700  0.08931422     0.19500
C389        C  0.01560726  0.28266547  0.95086238    -0.06300
C390        C  0.02978419  0.31314861  0.95752986    -0.17400
C391        C  0.03568748  0.33835817  0.93989997     0.10900
C392        C  0.03035230  0.33183232  0.91452495    -0.06200
C393        C  0.01559120  0.30124595  0.90820556    -0.17500
C394        C  0.00627481  0.27777406  0.92615191     0.10900
S395        S  0.04801016  0.37849327  0.95135553    -0.32400
S396        S  0.98176287  0.24287731  0.91615949    -0.32400
H397        H  0.96800429  0.23449315  0.93925292     0.28900
H398        H  0.03040231  0.39696793  0.93350278     0.28900
H399        H  0.03596998  0.31741566  0.97669719     0.19500
H400        H  0.01075291  0.29547329  0.88907866     0.19500
C401        C  0.20143255  0.22239847  0.51487461    -0.06300
C402        C  0.19300403  0.19456877  0.52954909    -0.17400
C403        C  0.16741653  0.19625585  0.54708150     0.10900
C404        C  0.15202749  0.22734643  0.55171678    -0.06200
C405        C  0.15774957  0.25366794  0.53473396    -0.17500
C406        C  0.18086307  0.25070980  0.51561555     0.10900
S407        S  0.15519575  0.15782948  0.56224711    -0.32400
S408        S  0.18374930  0.28424266  0.49326315    -0.32400
H409        H  0.19962139  0.26550448  0.47491894     0.28900
H410        H  0.12281058  0.16830790  0.56782890     0.28900
H411        H  0.20722214  0.17181953  0.52800665     0.19500
H412        H  0.14543630  0.27738550  0.53684135     0.19500
C413        C  0.10975844  0.45752389  0.56767977    -0.06300
C414        C  0.07563879  0.45958170  0.57283484    -0.17400
C415        C  0.05279690  0.46844833  0.55460203     0.10900
C416        C  0.06372635  0.47362032  0.53003529    -0.06200
C417        C  0.09786015  0.47279754  0.52490278    -0.17500
C418        C  0.12097848  0.46542620  0.54347631     0.10900
S419        S  0.01006972  0.47260638  0.56394779    -0.32400
S420        S  0.16424336  0.96735282  0.53513142    -0.32400
H421        H  0.17505122  0.97929359  0.55804435     0.28900
H422        H  0.00034224  0.49347808  0.54425076     0.28900
H423        H  0.06662390  0.45433379  0.59137820     0.19500
H424        H  0.10649633  0.97715779  0.50613331     0.19500
C425        C  0.14773232  0.16818331  0.68478054    -0.06300
C426        C  0.11524750  0.17457152  0.67653039    -0.17400
C427        C  0.10884474  0.19417176  0.65566256     0.10900
C428        C  0.13529395  0.20968728  0.64278680    -0.06200
C429        C  0.16781616  0.20414822  0.65105171    -0.17500
C430        C  0.17436377  0.18336435  0.67158901     0.10900
S431        S  0.06628446  0.19640703  0.64563813    -0.32400
S432        S  0.21708102  0.17741486  0.67974365    -0.32400
H433        H  0.21581446  0.14287670  0.67571741     0.28900
H434        H  0.07361668  0.19421668  0.62027788     0.28900
H435        H  0.09421123  0.16311266  0.68580817     0.19500
H436        H  0.18833699  0.21568751  0.64118242     0.19500
C437        C  0.15048815  0.03096906  0.68868399    -0.06300
C438        C  0.12236527  0.01049153  0.68609273    -0.17400
C439        C  0.12109212  0.98572514  0.66802506     0.10900
C440        C  0.14864303  0.48098337  0.65231346    -0.06200
C441        C  0.17667755  0.00115493  0.65495660    -0.17500
C442        C  0.17761861  0.02650137  0.67230118     0.10900
S443        S  0.08377054  0.46106540  0.66599870    -0.32400
S444        S  0.21309579  0.05386163  0.67077206    -0.32400
H445        H  0.19401073  0.08309669  0.67205416     0.28900
H446        H  0.09856210  0.43291007  0.65546623     0.28900
H447        H  0.10130614  0.01357362  0.69832178     0.19500
H448        H  0.19741573  0.99832435  0.64235316     0.19500
C449        C  0.11835003  0.25155674  0.91649027    -0.06300
C450        C  0.09095790  0.23026398  0.91247339    -0.17400
C451        C  0.06929428  0.22063120  0.93145725     0.10900
C452        C  0.07093491  0.23644017  0.95444586    -0.06200
C453        C  0.09769137  0.25795102  0.95892138    -0.17500
C454        C  0.12234806  0.26407230  0.94082842     0.10900
S455        S  0.04073659  0.18716449  0.92523049    -0.32400
S456        S  0.15889781  0.28578461  0.95090172    -0.32400
H457        H  0.18092616  0.26709937  0.93642657     0.28900
H458        H  0.03811877  0.17526370  0.94964933     0.28900
H459        H  0.08620687  0.22022087  0.89440209     0.19500
H460        H  0.09973713  0.26949649  0.97683390     0.19500
C461        C  0.16000389  0.17195108  0.79378206    -0.06300
C462        C  0.13046640  0.18368708  0.80445066    -0.17400
C463        C  0.13071893  0.20627477  0.82393005     0.10900
C464        C  0.16122664  0.21657740  0.83409651    -0.06200
C465        C  0.19074664  0.20520715  0.82348401    -0.17500
C466        C  0.19060863  0.18385359  0.80326429     0.10900
S467        S  0.09119187  0.22196532  0.83419694    -0.32400
S468        S  0.23061453  0.17359080  0.79063113    -0.32400
H469        H  0.22224261  0.18457967  0.76665984     0.28900
H470        H  0.10254284  0.25437422  0.83907257     0.28900
H471        H  0.10674721  0.17563157  0.79737188     0.19500
H472        H  0.21427501  0.21338946  0.83086765     0.19500
C473        C  0.14622254  0.48747427  0.83690718    -0.06300
C474        C  0.17515948  0.98728044  0.82242814    -0.17400
C475        C  0.17907293  0.00937040  0.80220757     0.10900
C476        C  0.15380472  0.03276836  0.79668968    -0.06200
C477        C  0.12531923  0.03308806  0.81175810    -0.17500
C478        C  0.12137715  0.01112291  0.83167600     0.10900
S479        S  0.21586303  0.00511694  0.78360971    -0.32400
S480        S  0.08397311  0.01484402  0.84987037    -0.32400
H481        H  0.09867459  0.50702676  0.87272985     0.28900
H482        H  0.19886418  0.00709896  0.76100050     0.28900
H483        H  0.19429798  0.46912792  0.82641457     0.19500
H484        H  0.10583341  0.05103827  0.80826779     0.19500
C485        C  0.27127400  0.42659635  0.94847364    -0.06300
C486        C  0.26747377  0.39239666  0.95355994    -0.17400
C487        C  0.25896685  0.37013190  0.93486313     0.10900
C488        C  0.25301121  0.38257042  0.91071973    -0.06200
C489        C  0.25797380  0.41672144  0.90573707    -0.17500
C490        C  0.26815516  0.43846011  0.92402135     0.10900
S491        S  0.25677544  0.32649373  0.94299439    -0.32400
S492        S  0.27644260  0.48107753  0.91496619    -0.32400
H493        H  0.29835872  0.48805523  0.93433602     0.28900
H494        H  0.26798572  0.31505093  0.91998717     0.28900
H495        H  0.27027020  0.38318956  0.97234287     0.19500
H496        H  0.25403660  0.42664464  0.88726469     0.19500
C497        C  0.28239323  0.01874089  0.02906531    -0.06300
C498        C  0.28851720  0.00591763  0.05285750    -0.17400
C499        C  0.29713614  0.02683079  0.07226978     0.10900
C500        C  0.29788177  0.06173602  0.06834047    -0.06200
C501        C  0.29107175  0.07461481  0.04467948    -0.17500
C502        C  0.28392025  0.05357365  0.02497745     0.10900
S503        S  0.30847705  0.00731569  0.10121497    -0.32400
S504        S  0.27822440  0.07270070  0.99499792    -0.32400
H505        H  0.29373412  0.04738367  0.98153038     0.28900
H506        H  0.33148968  0.03192036  0.10795402     0.28900
H507        H  0.28829690  0.97918367  0.05597631     0.19500
H508        H  0.29135269  0.10133485  0.04151374     0.19500
C509        C  0.16646977  0.45559972  0.92454467    -0.06300
C510        C  0.17746884  0.48814528  0.92968226    -0.17400
C511        C  0.20164593  0.49422433  0.94757699     0.10900
C512        C  0.21400189  0.46744204  0.96201163    -0.06200
C513        C  0.19883015  0.43605203  0.95977593    -0.17500
C514        C  0.17653442  0.42941786  0.94065498     0.10900
S515        S  0.21710403  0.03627022  0.94957022    -0.32400
S516        S  0.16523847  0.38639966  0.93649746    -0.32400
H517        H  0.16961564  0.38726969  0.91072323     0.28900
H518        H  0.25052197  0.02752856  0.95225198     0.28900
H519        H  0.16891309  0.00886987  0.91842839     0.19500
H520        H  0.20709170  0.41559802  0.97143528     0.19500
C521        C  0.33892705  0.47741055  0.01491797    -0.06300
C522        C  0.35408074  0.00874684  0.01664513    -0.17400
C523        C  0.37552181  0.01596863  0.03607308     0.10900
C524        C  0.38560343  0.49017604  0.05255250    -0.06200
C525        C  0.37485969  0.45741937  0.04774010    -0.17500
C526        C  0.35077371  0.45095949  0.02977979     0.10900
S527        S  0.38419093  0.05939569  0.04063544    -0.32400
S528        S  0.33278320  0.40980114  0.02798395    -0.32400
H529        H  0.35486794  0.39383391  0.04426941     0.28900
H530        H  0.37667726  0.05838310  0.06603813     0.28900
H531        H  0.34563920  0.02893739  0.00480831     0.19500
H532        H  0.38341519  0.43713978  0.05940474     0.19500
C533        C  0.41026074  0.20728174  0.05813117    -0.06300
C534        C  0.41971667  0.24050025  0.05286100    -0.17400
C535        C  0.44347676  0.24827712  0.03464409     0.10900
C536        C  0.45642718  0.22262013  0.01974509    -0.06200
C537        C  0.44282196  0.19054691  0.02234432    -0.17500
C538        C  0.42208256  0.18212436  0.04222677     0.10900
S539        S  0.45744683  0.29097316  0.03270736    -0.32400
S540        S  0.41610133  0.13829855  0.04795144    -0.32400
H541        H  0.42248479  0.14014734  0.07343222     0.28900
H542        H  0.49098764  0.28368387  0.02847105     0.28900
H543        H  0.41014583  0.26049135  0.06406320     0.19500
H544        H  0.45136299  0.17094184  0.01034421     0.19500
C545        C  0.37782060  0.21860857  0.42834653    -0.06300
C546        C  0.37268140  0.19189598  0.44510907    -0.17400
C547        C  0.35073876  0.19455492  0.46506616     0.10900
C548        C  0.33060650  0.22309876  0.46706142    -0.06200
C549        C  0.33843378  0.25115446  0.45242763    -0.17500
C550        C  0.36287829  0.24967414  0.43394543     0.10900
S551        S  0.34852953  0.16023487  0.48680201    -0.32400
S552        S  0.37440929  0.28847115  0.41901927    -0.32400
H553        H  0.40683127  0.27844308  0.41311231     0.28900
H554        H  0.33337097  0.17828792  0.50584658     0.28900
H555        H  0.38465466  0.16815265  0.44227090     0.19500
H556        H  0.32450677  0.27396278  0.45471812     0.19500
C557        C  0.39106307  0.41675891  0.18178350    -0.06300
C558        C  0.38758413  0.45113198  0.18547132    -0.17400
C559        C  0.39172342  0.47413830  0.16583749     0.10900
C560        C  0.40053707  0.46268418  0.14204076    -0.06200
C561        C  0.40311025  0.42810451  0.13842599    -0.17500
C562        C  0.39835314  0.40516704  0.15793148     0.10900
S563        S  0.38451852  0.51749317  0.17223429    -0.32400
S564        S  0.40203426  0.36100370  0.15239706    -0.32400
H565        H  0.40877855  0.36349700  0.12692345     0.28900
H566        H  0.37261583  0.52579297  0.14856684     0.28900
H567        H  0.38177183  0.46010735  0.20377810     0.19500
H568        H  0.40969031  0.41907694  0.12029698     0.19500
C569        C  0.39049132  0.27829728  0.18566638    -0.06300
C570        C  0.35927048  0.26914295  0.17638087    -0.17400
C571        C  0.35589854  0.24708589  0.15685746     0.10900
C572        C  0.38426181  0.23201234  0.14655832    -0.06200
C573        C  0.41554271  0.24025948  0.15599799    -0.17500
C574        C  0.41904402  0.26337906  0.17511860     0.10900
S575        S  0.31460202  0.24102852  0.14503719    -0.32400
S576        S  0.46057251  0.27265834  0.18481610    -0.32400
H577        H  0.45797402  0.30656992  0.17816226     0.28900
H578        H  0.32416935  0.24093805  0.12001554     0.28900
H579        H  0.33690892  0.28019284  0.18372301     0.19500
H580        H  0.43748490  0.22899486  0.14811526     0.19500
C581        C  0.39800864  0.24279661  0.33816828    -0.06300
C582        C  0.36916162  0.24122242  0.32383306    -0.17400
C583        C  0.36575329  0.26077428  0.30217539     0.10900
C584        C  0.39146864  0.28307907  0.29487782    -0.06200
C585        C  0.42010453  0.28447240  0.30956009    -0.17500
C586        C  0.42349957  0.26504585  0.33097172     0.10900
S587        S  0.32887567  0.25472920  0.28419657    -0.32400
S588        S  0.46103805  0.27020360  0.34854385    -0.32400
H589        H  0.44631345  0.26541331  0.37191176     0.28900
H590        H  0.34573510  0.25480449  0.26137791     0.28900
H591        H  0.34962165  0.22396652  0.32914972     0.19500
H592        H  0.43999713  0.30154520  0.30470187     0.19500
C593        C  0.42781141  0.50136750  0.40970820    -0.06300
C594        C  0.41727858  0.00634510  0.43422371    -0.17400
C595        C  0.43770179  0.99831010  0.45436888     0.10900
C596        C  0.46888770  0.48340509  0.45020194    -0.06200
C597        C  0.47864745  0.47684605  0.42592729    -0.17500
C598        C  0.45981539  0.48774890  0.40579355     0.10900
S599        S  0.42277640  0.00838274  0.48483325    -0.32400
S600        S  0.48000090  0.48705875  0.37599050    -0.32400
H601        H  0.46404413  0.51576599  0.36685810     0.28900
H602        H  0.44204416  0.98524898  0.49802925     0.28900
H603        H  0.39291147  0.01647387  0.43780631     0.19500
H604        H  0.50246289  0.46548125  0.42256307     0.19500
C605        C  0.38149785  0.46660251  0.32900654    -0.06300
C606        C  0.35717606  0.44188744  0.32733208    -0.17400
C607        C  0.35872916  0.41771146  0.30899359     0.10900
C608        C  0.38475938  0.41869452  0.29127175    -0.06200
C609        C  0.40904819  0.44364486  0.29298981    -0.17500
C610        C  0.40755464  0.46769403  0.31148789     0.10900
S611        S  0.32797951  0.38506735  0.31045821    -0.32400
S612        S  0.43952868  0.49919584  0.31164639    -0.32400
H613        H  0.42036934  0.02437201  0.32245173     0.28900
H614        H  0.35069964  0.35930928  0.30589789     0.28900
H615        H  0.33750468  0.44068254  0.34101797     0.19500
H616        H  0.42902356  0.44481339  0.27956098     0.19500
C617        C  0.38040458  0.98943180  0.35016454     0.03000
C618        C  0.35800629  0.51586394  0.35057486    -0.13200
C619        C  0.35853906  0.53976530  0.36960115     0.00500
C620        C  0.38269078  0.53553017  0.38845745    -0.11700
C621        C  0.40412111  0.50764035  0.38891267     0.03000
C622        C  0.40194357  0.98446377  0.36984165    -0.11100
H623        H  0.34024648  0.51684713  0.33579033     0.08500
H624        H  0.38533862  0.55368443  0.40283659     0.06100
H625        H  0.41708453  0.96223896  0.37014698     0.05900
O626        O  0.41511662  0.88474435  0.26281938    -0.74600
O627        O  0.41838748  0.81583115  0.21382615    -0.74600
O628        O  0.41733382  0.88339822  0.21236550    -0.74700
O629        O  0.41716292  0.81751642  0.26405388    -0.74700
O630        O  0.36209551  0.81606777  0.26408202    -0.74700
O631        O  0.36211723  0.88215439  0.21137034    -0.74600
O632        O  0.36341076  0.81465643  0.21375022    -0.74600
O633        O  0.35999815  0.88322932  0.26165419    -0.74700
Ni634      Ni  0.41895767  0.85046567  0.23827114     1.25400
Ni635      Ni  0.35996805  0.84897459  0.23764244     1.25400
C636        C  0.38680367  0.89449038  0.27085847     0.87600
C637        C  0.39115215  0.80398049  0.20550018     0.87500
C638        C  0.38993117  0.89331016  0.20309810     0.87500
C639        C  0.38987417  0.80626693  0.27304266     0.87700
C640        C  0.40227279  0.72052496  0.36002377     0.03000
C641        C  0.42646044  0.69561127  0.35947894    -0.13200
C642        C  0.43745875  0.67979123  0.38137685     0.00500
C643        C  0.42262316  0.68931185  0.40391240    -0.11700
C644        C  0.39612589  0.71222940  0.40460515     0.03000
C645        C  0.38592783  0.72729506  0.38223174    -0.11100
H646        H  0.43707013  0.68973686  0.34172345     0.08500
H647        H  0.43200442  0.67933827  0.42113414     0.06100
H648        H  0.36562580  0.74479694  0.38190994     0.05900
C649        C  0.38157787  0.70926316  0.12519995     0.03000
C650        C  0.39812182  0.71688454  0.10307055    -0.13200
C651        C  0.39086162  0.69963576  0.08127980     0.00500
C652        C  0.36555460  0.67524117  0.08204441    -0.11700
C653        C  0.35104926  0.66465737  0.10468685     0.03000
C654        C  0.36023071  0.68167339  0.12626869    -0.11100
H655        H  0.41627797  0.73679259  0.10285736     0.08500
H656        H  0.35745782  0.66452110  0.06489790     0.06100
H657        H  0.35022532  0.67453336  0.14411291     0.05900
C658        C  0.40830747  0.98538285  0.12060460     0.03000
C659        C  0.39327165  0.97962669  0.09784931    -0.13200
C660        C  0.40346505  0.49665011  0.07627240     0.00500
C661        C  0.42970047  0.51975904  0.07787201    -0.11700
C662        C  0.44299884  0.52903486  0.10095684     0.03000
C663        C  0.43219624  0.51080946  0.12220544    -0.11100
H664        H  0.37334687  0.96154447  0.09711258     0.08500
H665        H  0.43946581  0.53045226  0.06095223     0.06100
H666        H  0.44218164  0.51566765  0.14021636     0.05900
C667        C  0.27939023  0.49492612  0.00840471     0.02100
C668        C  0.30683435  0.97495194  0.00149533     0.02100
C669        C  0.30341763  0.95263897  0.98201801    -0.18400
C670        C  0.27339584  0.94987224  0.96933378     0.02100
C671        C  0.24579963  0.96970935  0.97609631     0.02100
C672        C  0.24914135  0.49194542  0.99579166    -0.18400
H673        H  0.22823086  0.50706659  0.00127318     0.04100
H674        H  0.32439031  0.93764882  0.97643487     0.04100
C675        C  0.14148360  0.96287321  0.85720573     0.03000
C676        C  0.15842578  0.96673543  0.87937396    -0.13200
C677        C  0.14790500  0.94993315  0.90100116     0.00500
C678        C  0.11963649  0.92914859  0.89980939    -0.11700
C679        C  0.10398759  0.92240877  0.87696444     0.03000
C680        C  0.11598303  0.93932847  0.85571159    -0.11100
H681        H  0.17901364  0.98407944  0.87990109     0.08500
H682        H  0.10975581  0.91881125  0.91683300     0.06100
H683        H  0.10500303  0.93574599  0.83780520     0.05900
C684        C  0.16299726  0.74014341  0.85499014     0.03000
C685        C  0.14571361  0.73372914  0.87691281    -0.13200
C686        C  0.14190352  0.75836413  0.89505516     0.00500
C687        C  0.15903523  0.78907534  0.89132726    -0.11700
C688        C  0.18111264  0.79390077  0.87098902     0.03000
C689        C  0.18180103  0.76921777  0.85271587    -0.11100
H690        H  0.13446769  0.70939374  0.87921850     0.08500
H691        H  0.15505934  0.80918342  0.90402126     0.06100
H692        H  0.19729920  0.77178295  0.83652695     0.05900
O693        O  0.12921822  0.63574499  0.76704829    -0.74600
O694        O  0.12423188  0.56753152  0.71772830    -0.74600
O695        O  0.12742152  0.56844173  0.76772957    -0.74700
O696        O  0.12489818  0.63460968  0.71709137    -0.74700
O697        O  0.17969916  0.63391349  0.71372328    -0.74700
O698        O  0.18249006  0.56779972  0.76647818    -0.74600
O699        O  0.17927098  0.56641431  0.71638658    -0.74600
O700        O  0.18404855  0.63512772  0.76407861    -0.74700
Ni701      Ni  0.12453664  0.60162947  0.74252078     1.25400
Ni702      Ni  0.18336372  0.60082232  0.74007540     1.25400
C703        C  0.15768462  0.64659031  0.77387186     0.87600
C704        C  0.15126787  0.55616260  0.70857546     0.87500
C705        C  0.15501126  0.55725301  0.77578431     0.87500
C706        C  0.15142023  0.64472762  0.70636947     0.87700
C707        C  0.14831437  0.95837712  0.63099833     0.03000
C708        C  0.17104498  0.93221782  0.62967061    -0.13200
C709        C  0.17665439  0.91493391  0.60741395     0.00500
C710        C  0.15652224  0.92343975  0.58686269    -0.11700
C711        C  0.13237644  0.94882970  0.58847970     0.03000
C712        C  0.12899693  0.96634756  0.61054646    -0.11100
H713        H  0.18447584  0.92618901  0.64632114     0.08500
H714        H  0.15962184  0.91092533  0.56949145     0.06100
H715        H  0.11187965  0.98706268  0.61160107     0.05900
C716        C  0.12926449  0.72983422  0.61999505     0.03000
C717        C  0.10639637  0.75610970  0.62004625    -0.13200
C718        C  0.09475353  0.77055877  0.59776837     0.00500
C719        C  0.10761690  0.75785652  0.57541336    -0.11700
C720        C  0.13368528  0.73457005  0.57517965     0.03000
C721        C  0.14445232  0.72098655  0.59779174    -0.11100
H722        H  0.09770224  0.76434898  0.63780363     0.08500
H723        H  0.09790616  0.76598181  0.55785333     0.06100
H724        H  0.16454381  0.70324706  0.59830644     0.05900
C725        C  0.01496366  0.70638678  0.00723269     0.02100
C726        C  0.48661009  0.72695514  0.00376984     0.02100
C727        C  0.48716413  0.75132660  0.98491464    -0.18400
C728        C  0.01490248  0.75528356  0.96941243     0.02100
C729        C  0.04266321  0.73420792  0.97229793     0.02100
C730        C  0.04253998  0.71014524  0.99138968    -0.18400
H731        H  0.06382745  0.69404438  0.99376207     0.04100
H732        H  0.46581210  0.76721161  0.98211596     0.04100
O733        O  0.36205990  0.83240363  0.71132181    -0.74600
O734        O  0.42767791  0.83713756  0.76275943    -0.74600
O735        O  0.36084173  0.83593663  0.76103610    -0.74700
O736        O  0.42897264  0.83176308  0.71285820    -0.74700
O737        O  0.42979034  0.88692286  0.70884419    -0.74700
O738        O  0.35992302  0.89119257  0.75823270    -0.74600
O739        O  0.42752278  0.89237152  0.75899269    -0.74600
O740        O  0.36274648  0.88782833  0.70837128    -0.74700
Ni741      Ni  0.39496559  0.83240166  0.73712020     1.25400
Ni742      Ni  0.39508567  0.89159235  0.73354935     1.25400
C743        C  0.35147865  0.85967807  0.70153488     0.87600
C744        C  0.43837712  0.86581860  0.76939790     0.87500
C745        C  0.34859557  0.86377255  0.76758111     0.87500
C746        C  0.44028574  0.85810118  0.70230264     0.87700
C747        C  0.25023821  0.85062624  0.84587345     0.03000
C748        C  0.26090533  0.86534478  0.86758788    -0.13200
C749        C  0.24321000  0.86144277  0.88966540     0.00500
C750        C  0.21606838  0.83930390  0.89068749    -0.11700
C751        C  0.20537032  0.82267123  0.86926764     0.03000
C752        C  0.22126510  0.83108913  0.84652475    -0.11100
H753        H  0.28331441  0.88030714  0.86735938     0.08500
H754        H  0.20395445  0.83475261  0.90822728     0.06100
H755        H  0.21227864  0.82157915  0.82923185     0.05900
C756        C  0.02458455  0.87988157  0.85405294     0.03000
C757        C  0.05216211  0.90108253  0.85521991    -0.13200
C758        C  0.07435023  0.89942010  0.87544566     0.00500
C759        C  0.06791108  0.87525968  0.89415304    -0.11700
C760        C  0.03850279  0.85618078  0.89425362     0.03000
C761        C  0.01709415  0.85900689  0.87403603    -0.11100
H762        H  0.05569974  0.91855484  0.84012475     0.08500
H763        H  0.08578778  0.87088797  0.90861088     0.06100
H764        H  0.99439556  0.84459012  0.87348509     0.05900
C765        C  0.25405411  0.86413309  0.62382890     0.03000
C766        C  0.22981424  0.88898135  0.62360346    -0.13200
C767        C  0.20397001  0.88918171  0.60595415     0.00500
C768        C  0.20506762  0.86468702  0.58725840    -0.11700
C769        C  0.23051846  0.84061208  0.58690201     0.03000
C770        C  0.25435031  0.84021058  0.60551028    -0.11100
H771        H  0.23189301  0.90810360  0.63734718     0.08500
H772        H  0.18626673  0.86364212  0.57314733     0.06100
H773        H  0.27382545  0.82164682  0.60537507     0.05900
C774        C  0.02983999  0.83394397  0.61984363     0.03000
C775        C  0.02678379  0.85428052  0.59885570    -0.13200
C776        C  0.04355831  0.84672644  0.57688776     0.00500
C777        C  0.06464732  0.81890330  0.57650496    -0.11700
C778        C  0.07006513  0.79895018  0.59787744     0.03000
C779        C  0.05179068  0.80683122  0.61940573    -0.11100
H780        H  0.01026627  0.87550358  0.59942406     0.08500
H781        H  0.07681178  0.81346752  0.55931326     0.06100
H782        H  0.05330043  0.79158606  0.63590412     0.05900
C783        C  0.00968522  0.58783606  0.12640714     0.03000
C784        C  0.48748038  0.56113493  0.12413893    -0.13200
C785        C  0.46787770  0.55733635  0.10276855     0.00500
C786        C  0.47205162  0.58135612  0.08342568    -0.11700
C787        C  0.49633414  0.60672603  0.08477787     0.03000
C788        C  0.01477424  0.60959104  0.10648268    -0.11100
H789        H  0.48624549  0.54349192  0.13930147     0.08500
H790        H  0.45647658  0.58083652  0.06730055     0.06100
H791        H  0.03370790  0.62866752  0.10786526     0.05900
C792        C  0.28156968  0.60660247  0.12777789     0.03000
C793        C  0.28060900  0.58297289  0.10921179    -0.13200
C794        C  0.30201907  0.58540455  0.08890938     0.00500
C795        C  0.32518494  0.61170523  0.08752513    -0.11700
C796        C  0.32632326  0.63639558  0.10595997     0.03000
C797        C  0.30347048  0.63368388  0.12580216    -0.11100
H798        H  0.26226603  0.56321340  0.11019516     0.08500
H799        H  0.34219715  0.61249314  0.07205228     0.06100
H800        H  0.30191966  0.65265491  0.13973765     0.05900
O801        O  0.17948248  0.63673080  0.26326978    -0.74600
O802        O  0.11001895  0.63130905  0.21460341    -0.74600
O803        O  0.11255251  0.63970732  0.26446125    -0.74700
O804        O  0.17644341  0.63023019  0.21362537    -0.74700
O805        O  0.17481951  0.57490525  0.21772808    -0.74700
O806        O  0.11104616  0.58491069  0.27078859    -0.74600
O807        O  0.10803583  0.57644665  0.22094429    -0.74600
O808        O  0.17755264  0.58137172  0.26760955    -0.74700
Ni809      Ni  0.14462240  0.63644783  0.23886020     1.25400
Ni810      Ni  0.14275024  0.57741523  0.24445443     1.25400
C811        C  0.18957040  0.60957194  0.27351204     0.87600
C812        C  0.09864202  0.60240838  0.20909573     0.87500
C813        C  0.10200855  0.61448693  0.27674292     0.87500
C814        C  0.18548456  0.60141459  0.20666078     0.87700
C815        C  0.01527643  0.63292810  0.36119671     0.03000
C816        C  0.02206258  0.61422981  0.38238478    -0.13200
C817        C  0.49924735  0.61217985  0.40207367     0.00500
C818        C  0.47015021  0.63164065  0.40041826    -0.11700
C819        C  0.46566592  0.65521539  0.38098248     0.03000
C820        C  0.48854644  0.65497340  0.36114849    -0.11100
H821        H  0.04503443  0.60043582  0.38279619     0.08500
H822        H  0.45078434  0.62809433  0.41400752     0.06100
H823        H  0.48607500  0.67151287  0.34539170     0.05900
C824        C  0.28808910  0.59858339  0.34960042     0.03000
C825        C  0.28291515  0.61660719  0.37096778    -0.13200
C826        C  0.30333436  0.61233250  0.39140595     0.00500
C827        C  0.32783548  0.58738154  0.39122816    -0.11700
C828        C  0.33357544  0.56806226  0.36979192     0.03000
C829        C  0.31388332  0.57532175  0.34867009    -0.11100
H830        H  0.26278493  0.63444026  0.37162644     0.08500
H831        H  0.34183852  0.58340064  0.40792774     0.06100
H832        H  0.31746446  0.56284433  0.33135776     0.05900
C833        C  0.01504928  0.50735304  0.47554240     0.02100
C834        C  0.49409818  0.98019527  0.47005098     0.02100
C835        C  0.49780871  0.94996970  0.48306429    -0.18400
C836        C  0.02064390  0.94708443  0.50255161     0.02100
C837        C  0.04006099  0.97524215  0.50904701     0.02100
C838        C  0.03735239  0.50488894  0.49523231    -0.18400
H839        H  0.05317878  0.52589103  0.49947001     0.04100
H840        H  0.48278095  0.92872097  0.47805261     0.04100
C841        C  0.27297935  0.69897828  0.47291182     0.02100
C842        C  0.29790323  0.72194275  0.48008721     0.02100
C843        C  0.29066401  0.74533194  0.49839685    -0.18400
C844        C  0.25919118  0.74642005  0.50963169     0.02100
C845        C  0.23444173  0.72325184  0.50250414     0.02100
C846        C  0.24169975  0.69981981  0.48429820    -0.18400
H847        H  0.22266183  0.68245341  0.47864510     0.04100
H848        H  0.30960320  0.76290697  0.50386891     0.04100
C849        C  0.29779744  0.63431768  0.41277642    -0.06300
C850        C  0.28827261  0.62030124  0.43561473    -0.17400
C851        C  0.27886843  0.64047978  0.45542142     0.10900
C852        C  0.27877980  0.67558467  0.45226006    -0.06200
C853        C  0.28685560  0.68931880  0.42904992    -0.17500
C854        C  0.29729200  0.66935369  0.40966570     0.10900
S855        S  0.26734379  0.61969412  0.48398354    -0.32400
S856        S  0.31007542  0.69025965  0.38146873    -0.32400
H857        H  0.33439065  0.66677743  0.37512624     0.28900
H858        H  0.27685854  0.64517332  0.50001197     0.28900
H859        H  0.28766214  0.59344205  0.43790526     0.19500
H860        H  0.28632487  0.71610978  0.42631365     0.19500
C861        C  0.00530940  0.58751421  0.42279338    -0.06300
C862        C  0.52325982  0.55832437  0.41737288    -0.17400
C863        C  0.53098224  0.53478619  0.43550233     0.10900
C864        C  0.01603677  0.53689304  0.45891253    -0.06200
C865        C  0.99837157  0.56567996  0.46495203    -0.17500
C866        C  0.99455578  0.59183627  0.44766728     0.10900
S867        S  0.55975262  0.00225125  0.42740793    -0.32400
S868        S  0.97786709  0.63020540  0.45931418    -0.32400
H869        H  0.99768191  0.65087253  0.44409611     0.28900
H870        H  0.57107434  0.99584590  0.45149402     0.28900
H871        H  0.53167073  0.55323773  0.39882450     0.19500
H872        H  0.98788465  0.56792960  0.48331786     0.19500
C873        C  0.03590419  0.62836498  0.33883295    -0.06300
C874        C  0.05548312  0.65489264  0.33035859    -0.17400
C875        C  0.07735453  0.65120553  0.31037632     0.10900
C876        C  0.07942821  0.62000712  0.29818645    -0.06200
C877        C  0.05953037  0.59350181  0.30679929    -0.17500
C878        C  0.03767286  0.59740757  0.32670910     0.10900
S879        S  0.10371029  0.68624923  0.30218803    -0.32400
S880        S  0.01237586  0.56200849  0.33552315    -0.32400
H881        H  0.98506338  0.58046633  0.34387326     0.28900
H882        H  0.08844803  0.70999959  0.31732749     0.28900
H883        H  0.05431364  0.67829435  0.34005036     0.19500
H884        H  0.06057754  0.56961989  0.29772912     0.19500
C885        C  0.26388826  0.60233578  0.32936314    -0.06300
C886        C  0.23098516  0.59331452  0.33457956    -0.17400
C887        C  0.20620918  0.59694181  0.31683519     0.10900
C888        C  0.21439997  0.60986062  0.29325340    -0.06200
C889        C  0.24717040  0.61937544  0.28798156    -0.17500
C890        C  0.27201884  0.61597116  0.30589710     0.10900
S891        S  0.16397779  0.58553267  0.32453648    -0.32400
S892        S  0.31329317  0.62964945  0.29782036    -0.32400
H893        H  0.32250581  0.63925347  0.32171584     0.28900
H894        H  0.17010564  0.57409067  0.34875305     0.28900
H895        H  0.22479792  0.58333950  0.35271377     0.19500
H896        H  0.25349364  0.62897727  0.26975400     0.19500
C897        C  0.25749287  0.60421049  0.14827755    -0.06300
C898        C  0.22901879  0.62383732  0.14671993    -0.17400
C899        C  0.20426432  0.62171133  0.16483749     0.10900
C900        C  0.20838624  0.59990373  0.18535762    -0.06200
C901        C  0.23632025  0.57924185  0.18642569    -0.17500
C902        C  0.26098841  0.58123294  0.16811249     0.10900
S903        S  0.16680499  0.64588243  0.16094243    -0.32400
S904        S  0.29634386  0.55411906  0.17123895    -0.32400
H905        H  0.31903534  0.57436971  0.15818539     0.28900
H906        H  0.17578087  0.66182617  0.13859738     0.33300
H907        H  0.22606669  0.64050372  0.13099177     0.19500
H908        H  0.23957440  0.56244937  0.20205823     0.19500
C909        C  0.02992241  0.59154158  0.14893958    -0.06300
C910        C  0.05095254  0.56531773  0.15549007    -0.17400
C911        C  0.07383693  0.56849185  0.17452683     0.10900
C912        C  0.07515345  0.59832313  0.18833363    -0.06200
C913        C  0.05367832  0.62451202  0.18196645    -0.17500
C914        C  0.03100642  0.62140538  0.16256521     0.10900
S915        S  0.10238043  0.53438660  0.17853737    -0.32400
S916        S  0.50386363  0.65616884  0.15640147    -0.32400
H917        H  0.47754968  0.63719776  0.14701831     0.28900
H918        H  0.13046569  0.55517385  0.17946943     0.28900
H919        H  0.05078800  0.54270053  0.14474947     0.19500
H920        H  0.05425606  0.64741374  0.19233850     0.19500
C921        C  0.02415987  0.91498663  0.51651400    -0.06300
C922        C  0.05596340  0.90130189  0.51910733    -0.17400
C923        C  0.06340709  0.87937867  0.53858140     0.10900
C924        C  0.03761771  0.86763082  0.55430440    -0.06200
C925        C  0.00488711  0.87748486  0.54908120    -0.17500
C926        C  0.99794547  0.90157038  0.53083649     0.10900
S927        S  0.10672411  0.87127156  0.54390218    -0.32400
S928        S  0.45619188  0.91725913  0.52785995    -0.32400
H929        H  0.44134266  0.89598560  0.54556695     0.28900
H930        H  0.10449132  0.87395391  0.56974079     0.28900
H931        H  0.07600358  0.91081337  0.50762877     0.19500
H932        H  0.48481368  0.86758831  0.56031569     0.19500
C933        C  0.23405947  0.81632634  0.56670102    -0.06300
C934        C  0.24361974  0.82812938  0.54322178    -0.17400
C935        C  0.25281440  0.80618579  0.52444888     0.10900
C936        C  0.25253417  0.77137441  0.52920852    -0.06200
C937        C  0.24366417  0.75973763  0.55293260    -0.17500
C938        C  0.23391524  0.78163808  0.57146515     0.10900
S939        S  0.26467065  0.82452649  0.49505586    -0.32400
S940        S  0.22167476  0.76382538  0.60088836    -0.32400
H941        H  0.19916557  0.78915612  0.60696748     0.28900
H942        H  0.25505716  0.79787671  0.48013967     0.28900
H943        H  0.24474119  0.85475216  0.53968043     0.19500
H944        H  0.24363258  0.73320142  0.55688583     0.19500
C945        C  0.46449987  0.85355042  0.68163577    -0.06300
C946        C  0.46584658  0.82176318  0.67088887    -0.17400
C947        C  0.48660302  0.81489410  0.65093629     0.10900
C948        C  0.50804744  0.83989114  0.64157820    -0.06200
C949        C  0.50736903  0.87160389  0.65238819    -0.17500
C950        C  0.48570040  0.87879194  0.67202725     0.10900
S951        S  0.98286908  0.77415857  0.63744969    -0.32400
S952        S  0.48699722  0.92019203  0.68427626    -0.32400
H953        H  0.45429104  0.92723366  0.67704301     0.28900
H954        H  0.98620976  0.78536784  0.61283335     0.28900
H955        H  0.44958542  0.80200940  0.67745700     0.19500
H956        H  0.52364620  0.89103877  0.64529687     0.19500
C957        C  0.46262703  0.86923019  0.78989242    -0.06300
C958        C  0.46399177  0.89986266  0.80235715    -0.17400
C959        C  0.48413025  0.90431643  0.82304743     0.10900
C960        C  0.50390697  0.87774599  0.83158343    -0.06200
C961        C  0.50332788  0.84743061  0.81889659    -0.17500
C962        C  0.48348054  0.84303087  0.79803075     0.10900
S963        S  0.48237751  0.94400334  0.83825338    -0.32400
S964        S  0.48707942  0.80391752  0.78228222    -0.32400
H965        H  0.48763900  0.81859543  0.75852123     0.28900
H966        H  0.48744132  0.93150142  0.86231394     0.28900
H967        H  0.44835094  0.92036193  0.79650571     0.19500
H968        H  0.01886450  0.82705164  0.82519763     0.19500
C969        C  0.32090357  0.86264091  0.78604434    -0.06300
C970        C  0.30625230  0.83131354  0.79115367    -0.17400
C971        C  0.28279769  0.82671044  0.80994788     0.10900
C972        C  0.27139147  0.85444058  0.82331713    -0.06200
C973        C  0.28416553  0.88621453  0.81709424    -0.17500
C974        C  0.30929892  0.89048681  0.79929891     0.10900
S975        S  0.27111293  0.78426144  0.81723398    -0.32400
S976        S  0.32685965  0.93156376  0.79590393    -0.32400
H977        H  0.35957982  0.92046618  0.79939355     0.28900
H978        H  0.27375151  0.78783991  0.84296936     0.28900
H979        H  0.31430538  0.80947382  0.78125093     0.19500
H980        H  0.27581013  0.90775595  0.82723579     0.19500
C981        C  0.27947053  0.86298685  0.64328654    -0.06300
C982        C  0.27664194  0.83861100  0.66200550    -0.17400
C983        C  0.29941477  0.83698116  0.68142376     0.10900
C984        C  0.32632580  0.85956735  0.68175652    -0.06200
C985        C  0.32901944  0.88389548  0.66289834    -0.17500
C986        C  0.30609460  0.88573522  0.64367665     0.10900
S987        S  0.29146922  0.80710301  0.70589516    -0.32400
S988        S  0.31234267  0.91751292  0.62020488    -0.32400
H989        H  0.29802548  0.89990233  0.60067210     0.28900
H990        H  0.30023933  0.82871069  0.72507777     0.28900
H991        H  0.25596053  0.82133578  0.66184008     0.19500
H992        H  0.34947806  0.90143892  0.66293127     0.19500
C993        C  0.01573704  0.68066901  0.02733763    -0.06300
C994        C  0.51313819  0.64689456  0.02111928    -0.17400
C995        C  0.50717947  0.62216535  0.03922878     0.10900
C996        C  0.00265105  0.63134024  0.06423828    -0.06200
C997        C  0.00623397  0.66518027  0.07032272    -0.17500
C998        C  0.01378285  0.68950559  0.05244268     0.10900
S999        S  0.50632761  0.57957809  0.02910592    -0.32400
S1000       S  0.02042940  0.73147638  0.06286304    -0.32400
H1001       H  0.04032305  0.74175266  0.04276655     0.28900
H1002       H  0.52199409  0.56647117  0.05023503     0.28900
H1003       H  0.51481774  0.63987130  0.00189050     0.19500
H1004       H  0.00327207  0.67286940  0.08931891     0.19500
C1005       C  0.01561106  0.78265410  0.95086539    -0.06300
C1006       C  0.02977488  0.81314348  0.95753297    -0.17400
C1007       C  0.03568093  0.83834962  0.93990063     0.10900
C1008       C  0.03036248  0.83181403  0.91452507    -0.06200
C1009       C  0.01561361  0.80122195  0.90820586    -0.17500
C1010       C  0.00629292  0.77775379  0.92615326     0.10900
S1011       S  0.04798598  0.87849228  0.95135232    -0.32400
S1012       S  0.98179129  0.74284972  0.91616258    -0.32400
H1013       H  0.96798534  0.73451267  0.93924973     0.28900
H1014       H  0.03038511  0.89695654  0.93348980     0.28900
H1015       H  0.03594931  0.81741740  0.97670137     0.19500
H1016       H  0.01078591  0.79544332  0.88907790     0.19500
C1017       C  0.20143318  0.72239584  0.51487577    -0.06300
C1018       C  0.19300498  0.69456785  0.52955201    -0.17400
C1019       C  0.16741852  0.69625692  0.54708506     0.10900
C1020       C  0.15202845  0.72734771  0.55171831    -0.06200
C1021       C  0.15775035  0.75366739  0.53473378    -0.17500
C1022       C  0.18086460  0.75070789  0.51561579     0.10900
S1023       S  0.15520187  0.65783196  0.56225458    -0.32400
S1024       S  0.18375376  0.78424025  0.49326308    -0.32400
H1025       H  0.19962559  0.76550081  0.47491947     0.28900
H1026       H  0.12281631  0.66830900  0.56783638     0.28900
H1027       H  0.20722279  0.67181885  0.52801082     0.19500
H1028       H  0.14543669  0.77738534  0.53683994     0.19500
C1029       C  0.10978586  0.95754486  0.56767359    -0.06300
C1030       C  0.07566694  0.95960766  0.57282998    -0.17400
C1031       C  0.05282482  0.96847388  0.55459763     0.10900
C1032       C  0.06375262  0.97364034  0.53003009    -0.06200
C1033       C  0.09788580  0.97281312  0.52489577    -0.17500
C1034       C  0.12100494  0.96544141  0.54346876     0.10900
S1035       S  0.01009859  0.97263594  0.56394433    -0.32400
S1036       S  0.16421744  0.46734754  0.53514216    -0.32400
H1037       H  0.17501986  0.47928860  0.55805645     0.28900
H1038       H  0.00037426  0.99351116  0.54424844     0.28900
H1039       H  0.06665228  0.95436269  0.59137406     0.19500
H1040       H  0.10647243  0.47714753  0.50614101     0.19500
C1041       C  0.14773549  0.66819025  0.68478308    -0.06300
C1042       C  0.11524999  0.67459449  0.67654142    -0.17400
C1043       C  0.10884680  0.69419569  0.65567413     0.10900
C1044       C  0.13529737  0.70969750  0.64279052    -0.06200
C1045       C  0.16782065  0.70414473  0.65104837    -0.17500
C1046       C  0.17436794  0.68335900  0.67158474     0.10900
S1047       S  0.06628299  0.69644766  0.64566007    -0.32400
S1048       S  0.21708656  0.67739020  0.67972811    -0.32400
H1049       H  0.21580169  0.64285191  0.67570591     0.28900
H1050       H  0.07360354  0.69424391  0.62029875     0.28900
H1051       H  0.09421220  0.66314665  0.68582537     0.19500
H1052       H  0.18834221  0.71567397  0.64117412     0.19500
C1053       C  0.15048101  0.53096930  0.68868071    -0.06300
C1054       C  0.12235599  0.51049414  0.68609268    -0.17400
C1055       C  0.12107759  0.48572636  0.66802655     0.10900
C1056       C  0.14865979  0.98098685  0.65231334    -0.06200
C1057       C  0.17666272  0.50114998  0.65495292    -0.17500
C1058       C  0.17760832  0.52649846  0.67229570     0.10900
S1059       S  0.08378891  0.96105905  0.66599366    -0.32400
S1060       S  0.21308597  0.55385758  0.67076149    -0.32400
H1061       H  0.19400165  0.58309292  0.67204504     0.28900
H1062       H  0.09858606  0.93290716  0.65546042     0.28900
H1063       H  0.10129854  0.51357913  0.69832368     0.19500
H1064       H  0.19739920  0.49831640  0.64234784     0.19500
C1065       C  0.11836030  0.75153701  0.91649677    -0.06300
C1066       C  0.09097221  0.73023816  0.91248173    -0.17400
C1067       C  0.06930701  0.72060925  0.93146549     0.10900
C1068       C  0.07094038  0.73642910  0.95445019    -0.06200
C1069       C  0.09769275  0.75794515  0.95892402    -0.17500
C1070       C  0.12235265  0.76406137  0.94083302     0.10900
S1071       S  0.04075739  0.68713366  0.92524405    -0.32400
S1072       S  0.15890034  0.78577577  0.95090793    -0.32400
H1073       H  0.18093117  0.76708808  0.93643662     0.28900
H1074       H  0.03814663  0.67523677  0.94966425     0.28900
H1075       H  0.08622483  0.72018747  0.89441205     0.19500
H1076       H  0.09973401  0.76949705  0.97683480     0.19500
C1077       C  0.16000919  0.67194478  0.79378276    -0.06300
C1078       C  0.13047249  0.68368061  0.80445290    -0.17400
C1079       C  0.13072687  0.70626599  0.82393381     0.10900
C1080       C  0.16123553  0.71656603  0.83410019    -0.06200
C1081       C  0.19075455  0.70519679  0.82348564    -0.17500
C1082       C  0.19061481  0.68384584  0.80326444     0.10900
S1083       S  0.09120100  0.72195692  0.83420310    -0.32400
S1084       S  0.23061938  0.67358453  0.79062836    -0.32400
H1085       H  0.22224417  0.68457428  0.76665794     0.28900
H1086       H  0.10255333  0.75436464  0.83908119     0.28900
H1087       H  0.10675286  0.67562694  0.79737421     0.19500
H1088       H  0.21428424  0.71337813  0.83086912     0.19500
C1089       C  0.14621629  0.98747167  0.83690707    -0.06300
C1090       C  0.17515753  0.48726929  0.82241936    -0.17400
C1091       C  0.17906937  0.50935687  0.80219711     0.10900
C1092       C  0.15380754  0.53276472  0.79668595    -0.06200
C1093       C  0.12533048  0.53309738  0.81176278    -0.17500
C1094       C  0.12139093  0.51113604  0.83168317     0.10900
S1095       S  0.21584803  0.50508836  0.78358864    -0.32400
S1096       S  0.08399992  0.51487460  0.84989008    -0.32400
H1097       H  0.09863567  0.00699509  0.87271431     0.28900
H1098       H  0.19883946  0.50708527  0.76098415     0.28900
H1099       H  0.19430554  0.96914744  0.82642869     0.19500
H1100       H  0.10585036  0.55105585  0.80827757     0.19500
C1101       C  0.27128674  0.92657660  0.94848006    -0.06300
C1102       C  0.26748950  0.89237707  0.95356794    -0.17400
C1103       C  0.25898355  0.87011061  0.93487221     0.10900
C1104       C  0.25302384  0.88254809  0.91072916    -0.06200
C1105       C  0.25798383  0.91669918  0.90574508    -0.17500
C1106       C  0.26816676  0.93843881  0.92402771     0.10900
S1107       S  0.25679875  0.82647228  0.94300386    -0.32400
S1108       S  0.27645490  0.98105554  0.91497088    -0.32400
H1109       H  0.29837287  0.98803368  0.93433950     0.28900
H1110       H  0.26800445  0.81503065  0.91999510     0.28900
H1111       H  0.27028822  0.88317130  0.97235141     0.19500
H1112       H  0.25404372  0.92662176  0.88727276     0.19500
C1113       C  0.28239080  0.51875740  0.02906254    -0.06300
C1114       C  0.28851934  0.50593485  0.05285430    -0.17400
C1115       C  0.29713794  0.52684899  0.07226613     0.10900
C1116       C  0.29787942  0.56175436  0.06833707    -0.06200
C1117       C  0.29106348  0.57463274  0.04467694    -0.17500
C1118       C  0.28391116  0.55359076  0.02497529     0.10900
S1119       S  0.30848217  0.50733478  0.10121101    -0.32400
S1120       S  0.27820378  0.57271727  0.99499703    -0.32400
H1121       H  0.29372214  0.54740628  0.98152858     0.28900
H1122       H  0.33149432  0.53194043  0.10794914     0.28900
H1123       H  0.28830237  0.47920141  0.05597314     0.19500
H1124       H  0.29134067  0.60135329  0.04151169     0.19500
C1125       C  0.16648206  0.95558373  0.92454078    -0.06300
C1126       C  0.17748134  0.98812874  0.92968031    -0.17400
C1127       C  0.20165759  0.99420631  0.94757608     0.10900
C1128       C  0.21401179  0.96742326  0.96201080    -0.06200
C1129       C  0.19884124  0.93603317  0.95977206    -0.17500
C1130       C  0.17654787  0.92940023  0.94064931     0.10900
S1131       S  0.21709093  0.53628886  0.94956991    -0.32400
S1132       S  0.16525698  0.88638163  0.93648729    -0.32400
H1133       H  0.16963378  0.88725727  0.91071304     0.28900
H1134       H  0.25050933  0.52754804  0.95224984     0.28900
H1135       H  0.16890062  0.50888509  0.91842894     0.19500
H1136       H  0.20710202  0.91557811  0.97143083     0.19500
C1137       C  0.33893316  0.97740300  0.01492040    -0.06300
C1138       C  0.35407684  0.50875288  0.01664639    -0.17400
C1139       C  0.37551898  0.51596900  0.03607487     0.10900
C1140       C  0.38560677  0.99018004  0.05255414    -0.06200
C1141       C  0.37486525  0.95742143  0.04774547    -0.17500
C1142       C  0.35078041  0.95095605  0.02978555     0.10900
S1143       S  0.38418892  0.55939454  0.04064387    -0.32400
S1144       S  0.33279421  0.90979546  0.02799188    -0.32400
H1145       H  0.35485003  0.89384049  0.04430582     0.28900
H1146       H  0.37667337  0.55837583  0.06604623     0.28900
H1147       H  0.34563536  0.52894764  0.00481205     0.19500
H1148       H  0.38342316  0.93714486  0.05941141     0.19500
C1149       C  0.41027214  0.70728517  0.05813550    -0.06300
C1150       C  0.41973330  0.74050237  0.05286664    -0.17400
C1151       C  0.44349666  0.74827539  0.03465164     0.10900
C1152       C  0.45644238  0.72261658  0.01975235    -0.06200
C1153       C  0.44283134  0.69054573  0.02234976    -0.17500
C1154       C  0.42209043  0.68212596  0.04223157     0.10900
S1155       S  0.45747851  0.79096799  0.03271924    -0.32400
S1156       S  0.41610361  0.63830096  0.04795718    -0.32400
H1157       H  0.42249042  0.64014954  0.07343754     0.28900
H1158       H  0.49101767  0.78367095  0.02848304     0.28900
H1159       H  0.41016571  0.76049389  0.06406909     0.19500
H1160       H  0.45136926  0.67093969  0.01034918     0.19500
C1161       C  0.37781773  0.71860035  0.42834359    -0.06300
C1162       C  0.37267488  0.69188297  0.44510134    -0.17400
C1163       C  0.35073429  0.69453893  0.46505990     0.10900
C1164       C  0.33060610  0.72308494  0.46706085    -0.06200
C1165       C  0.33843684  0.75114418  0.45243155    -0.17500
C1166       C  0.36288043  0.74966611  0.43394836     0.10900
S1167       S  0.34852338  0.66021244  0.48679006    -0.32400
S1168       S  0.37441774  0.78846592  0.41902917    -0.32400
H1169       H  0.40683787  0.77843403  0.41312015     0.28900
H1170       H  0.33336669  0.67826082  0.50583787     0.28900
H1171       H  0.38464395  0.66813925  0.44225858     0.19500
H1172       H  0.32451392  0.77395356  0.45472646     0.19500
C1173       C  0.39107516  0.91676895  0.18178154    -0.06300
C1174       C  0.38757058  0.95114016  0.18546627    -0.17400
C1175       C  0.39171064  0.97414724  0.16583296     0.10900
C1176       C  0.40054750  0.96269574  0.14204049    -0.06200
C1177       C  0.40314618  0.92811788  0.13842821    -0.17500
C1178       C  0.39839120  0.90517949  0.15793313     0.10900
S1179       S  0.38448024  0.01749934  0.17222397    -0.32400
S1180       S  0.40210543  0.86101799  0.15240228    -0.32400
H1181       H  0.40887244  0.86351368  0.12693206     0.28900
H1182       H  0.37259239  0.02579213  0.14855109     0.28900
H1183       H  0.38173920  0.96011376  0.20377080     0.19500
H1184       H  0.40974365  0.91909354  0.12030202     0.19500
C1185       C  0.39050913  0.77830668  0.18566501    -0.06300
C1186       C  0.35929013  0.76916199  0.17637123    -0.17400
C1187       C  0.35592030  0.74710125  0.15685028     0.10900
C1188       C  0.38428304  0.73201461  0.14656178    -0.06200
C1189       C  0.41556250  0.74025373  0.15600798    -0.17500
C1190       C  0.41906211  0.76337672  0.17512675     0.10900
S1191       S  0.31462840  0.74105478  0.14501839    -0.32400
S1192       S  0.46058861  0.77264324  0.18483568    -0.32400
H1193       H  0.45800573  0.80655415  0.17817619     0.28900
H1194       H  0.32420845  0.74095652  0.11999946     0.28900
H1195       H  0.33692761  0.78022218  0.18370558     0.19500
H1196       H  0.43750361  0.72898028  0.14813244     0.19500
C1197       C  0.39801183  0.74280455  0.33816668    -0.06300
C1198       C  0.36916288  0.74123676  0.32383309    -0.17400
C1199       C  0.36575608  0.76078977  0.30217573     0.10900
C1200       C  0.39147511  0.78308917  0.29487642    -0.06200
C1201       C  0.42011290  0.78447682  0.30955736    -0.17500
C1202       C  0.42350604  0.76504923  0.33096901     0.10900
S1203       S  0.32887435  0.75475347  0.28420006    -0.32400
S1204       S  0.46104671  0.77020067  0.34853975    -0.32400
H1205       H  0.44632398  0.76540820  0.37190810     0.28900
H1206       H  0.34573153  0.75481878  0.26138055     0.28900
H1207       H  0.34962048  0.72398497  0.32915059     0.19500
H1208       H  0.44000720  0.80154456  0.30469854     0.19500
C1209       C  0.42779546  0.00136452  0.40970893    -0.06300
C1210       C  0.41729515  0.50634943  0.43422296    -0.17400
C1211       C  0.43772000  0.49831786  0.45436778     0.10900
C1212       C  0.46886832  0.98339415  0.45020351    -0.06200
C1213       C  0.47862730  0.97683462  0.42592871    -0.17500
C1214       C  0.45979822  0.98774258  0.40579484     0.10900
S1215       S  0.42279546  0.50839068  0.48483240    -0.32400
S1216       S  0.47998688  0.98705579  0.37599286    -0.32400
H1217       H  0.46403462  0.01576684  0.36686260     0.28900
H1218       H  0.44206370  0.48525700  0.49802818     0.28900
H1219       H  0.39292728  0.51647577  0.43780574     0.19500
H1220       H  0.50244150  0.96546645  0.42256449     0.19500
C1221       C  0.38148829  0.96661287  0.32900221    -0.06300
C1222       C  0.35716693  0.94189795  0.32732460    -0.17400
C1223       C  0.35872404  0.91772248  0.30898604     0.10900
C1224       C  0.38475816  0.91870591  0.29126743    -0.06200
C1225       C  0.40904561  0.94365711  0.29298791    -0.17500
C1226       C  0.40754793  0.96770597  0.31148596     0.10900
S1227       S  0.32797427  0.88507811  0.31044692    -0.32400
S1228       S  0.43952069  0.99920903  0.31164808    -0.32400
H1229       H  0.42037840  0.52436124  0.32244803     0.28900
H1230       H  0.35069591  0.85931982  0.30589121     0.28900
H1231       H  0.33749328  0.94069233  0.34100822     0.19500
H1232       H  0.42902369  0.94482653  0.27956075     0.19500
C1233       C  0.88040008  0.48942709  0.35016198     0.03000
C1234       C  0.85800693  0.01587216  0.35057112    -0.13200
C1235       C  0.85853923  0.03977335  0.36959774     0.00500
C1236       C  0.88268815  0.03553537  0.38845611    -0.11700
C1237       C  0.90411572  0.00764336  0.38891298     0.03000
C1238       C  0.90193955  0.48445867  0.36983872    -0.11100
H1239       H  0.84024963  0.01685778  0.33578463     0.08500
H1240       H  0.88533578  0.05368938  0.40283610     0.06100
H1241       H  0.91707971  0.46223203  0.37014419     0.05900
O1242       O  0.91510934  0.38473993  0.26281500    -0.74600
O1243       O  0.91837405  0.31582888  0.21381949    -0.74600
O1244       O  0.91732069  0.38339607  0.21236083    -0.74700
O1245       O  0.91715691  0.31751173  0.26404730    -0.74700
O1246       O  0.86208950  0.31606257  0.26407961    -0.74700
O1247       O  0.86210399  0.38215156  0.21136901    -0.74600
O1248       O  0.86339744  0.31465416  0.21374772    -0.74600
O1249       O  0.85999067  0.38322421  0.26165371    -0.74700
Ni1250     Ni  0.91894775  0.35046228  0.23826546     1.25400
Ni1251     Ni  0.85995808  0.34897080  0.23764096     1.25400
C1252       C  0.88679718  0.39448503  0.27085646     0.87600
C1253       C  0.89113750  0.30397901  0.20549494     0.87500
C1254       C  0.88991698  0.39330789  0.20309515     0.87500
C1255       C  0.88986952  0.30626149  0.27303788     0.87700
C1256       C  0.90227796  0.22052416  0.36002121     0.03000
C1257       C  0.92646728  0.19561203  0.35947847    -0.13200
C1258       C  0.93746624  0.17979591  0.38137765     0.00500
C1259       C  0.92262954  0.18931795  0.40391249    -0.11700
C1260       C  0.89613038  0.21223395  0.40460326     0.03000
C1261       C  0.88593198  0.22729571  0.38222846    -0.11100
H1262       H  0.93707688  0.18973487  0.34172372     0.08500
H1263       H  0.93201103  0.17934625  0.42113459     0.06100
H1264       H  0.86562775  0.24479620  0.38190485     0.05900
C1265       C  0.88154773  0.20927167  0.12518764     0.03000
C1266       C  0.89809930  0.21688777  0.10306009    -0.13200
C1267       C  0.89084776  0.19963385  0.08126969     0.00500
C1268       C  0.86554064  0.17523849  0.08203298    -0.11700
C1269       C  0.85102566  0.16466163  0.10467425     0.03000
C1270       C  0.86020125  0.18168145  0.12625562    -0.11100
H1271       H  0.91625591  0.23679504  0.10284803     0.08500
H1272       H  0.85744960  0.16451412  0.06488644     0.06100
H1273       H  0.85019377  0.17454243  0.14409853     0.05900
C1274       C  0.90830194  0.48538278  0.12060316     0.03000
C1275       C  0.89326640  0.47963019  0.09784686    -0.13200
C1276       C  0.90345374  0.99666797  0.07627820     0.00500
C1277       C  0.92968933  0.01977714  0.07787593    -0.11700
C1278       C  0.94298975  0.02905457  0.10095975     0.03000
C1279       C  0.93218898  0.01083030  0.12220978    -0.11100
H1280       H  0.87333920  0.46155118  0.09710844     0.08500
H1281       H  0.93945412  0.03046859  0.06095507     0.06100
H1282       H  0.94217392  0.01569039  0.14021984     0.05900
C1283       C  0.77938716  0.99492704  0.00839738     0.02100
C1284       C  0.80682408  0.47496488  0.00149558     0.02100
C1285       C  0.80340555  0.45265146  0.98201822    -0.18400
C1286       C  0.77338334  0.44988644  0.96933359     0.02100
C1287       C  0.74578838  0.46972524  0.97609605     0.02100
C1288       C  0.74914165  0.99194455  0.99578005    -0.18400
H1289       H  0.72822984  0.00706574  0.00125720     0.04100
H1290       H  0.82437685  0.43766035  0.97643502     0.04100
C1291       C  0.64148707  0.46286630  0.85720551     0.03000
C1292       C  0.65842164  0.46673478  0.87937646    -0.13200
C1293       C  0.64789312  0.44993910  0.90100443     0.00500
C1294       C  0.61962353  0.42915572  0.89981088    -0.11700
C1295       C  0.60398169  0.42241088  0.87696391     0.03000
C1296       C  0.61598653  0.43932176  0.85571047    -0.11100
H1297       H  0.67900926  0.48407874  0.87990472     0.08500
H1298       H  0.60973664  0.41882384  0.91683343     0.06100
H1299       H  0.60501166  0.43573394  0.83780254     0.05900
C1300       C  0.66298165  0.24015625  0.85498525     0.03000
C1301       C  0.64569901  0.23374137  0.87690822    -0.13200
C1302       C  0.64189090  0.25837516  0.89505152     0.00500
C1303       C  0.65902563  0.28908562  0.89132502    -0.11700
C1304       C  0.68110278  0.29391144  0.87098586     0.03000
C1305       C  0.68178725  0.26922958  0.85271170    -0.11100
H1306       H  0.63445243  0.20940651  0.87921350     0.08500
H1307       H  0.65505186  0.30919142  0.90402019     0.06100
H1308       H  0.69728411  0.27179413  0.83652190     0.05900
O1309       O  0.62920094  0.13575129  0.76704708    -0.74600
O1310       O  0.62421735  0.06753573  0.71772750    -0.74600
O1311       O  0.62740349  0.06844681  0.76772935    -0.74700
O1312       O  0.62488480  0.13461506  0.71709074    -0.74700
O1313       O  0.67968627  0.13391933  0.71372679    -0.74700
O1314       O  0.68247195  0.06780274  0.76647880    -0.74600
O1315       O  0.67925650  0.06641988  0.71638743    -0.74600
O1316       O  0.68403152  0.13513087  0.76408129    -0.74700
Ni1317     Ni  0.62452070  0.10163460  0.74252009     1.25400
Ni1318     Ni  0.68334797  0.10082659  0.74007747     1.25400
C1319       C  0.65766695  0.14659680  0.77387130     0.87600
C1320       C  0.65125415  0.05616752  0.70857521     0.87500
C1321       C  0.65499262  0.05725565  0.77578362     0.87500
C1322       C  0.65140843  0.14473460  0.70637184     0.87700
C1323       C  0.64830975  0.45837088  0.63100114     0.03000
C1324       C  0.67104272  0.43221367  0.62967240    -0.13200
C1325       C  0.67665360  0.41493125  0.60741544     0.00500
C1326       C  0.65652124  0.42343755  0.58686407    -0.11700
C1327       C  0.63237213  0.44882452  0.58848236     0.03000
C1328       C  0.62899055  0.46633994  0.61054988    -0.11100
H1329       H  0.68447483  0.42618539  0.64632301     0.08500
H1330       H  0.65962311  0.41092584  0.56949204     0.06100
H1331       H  0.61187156  0.48705365  0.61160504     0.05900
C1332       C  0.62927077  0.22984269  0.61999678     0.03000
C1333       C  0.60640650  0.25612130  0.62004669    -0.13200
C1334       C  0.59476427  0.27056841  0.59776809     0.00500
C1335       C  0.60762624  0.25786296  0.57541397    -0.11700
C1336       C  0.63369234  0.23457405  0.57518113     0.03000
C1337       C  0.64445687  0.22098984  0.59779390    -0.11100
H1338       H  0.59771337  0.26436358  0.63780354     0.08500
H1339       H  0.59791536  0.26598792  0.55785298     0.06100
H1340       H  0.66454510  0.20324683  0.59830962     0.05900
C1341       C  0.51494687  0.20639776  0.00722902     0.02100
C1342       C  0.98660518  0.22696193  0.00376208     0.02100
C1343       C  0.98715899  0.25133551  0.98490823    -0.18400
C1344       C  0.51488387  0.25528848  0.96940408     0.02100
C1345       C  0.54264575  0.23421451  0.97229171     0.02100
C1346       C  0.54252317  0.21015505  0.99138572    -0.18400
H1347       H  0.56381143  0.19405453  0.99375932     0.04100
H1348       H  0.96580666  0.26722082  0.98211063     0.04100
O1349       O  0.86206952  0.33239295  0.71132154    -0.74600
O1350       O  0.92768630  0.33713985  0.76276009    -0.74600
O1351       O  0.86084950  0.33593088  0.76103626    -0.74700
O1352       O  0.92898267  0.33176018  0.71285957    -0.74700
O1353       O  0.92979382  0.38691961  0.70884194    -0.74700
O1354       O  0.85992592  0.39118627  0.75822982    -0.74600
O1355       O  0.92752593  0.39237298  0.75898922    -0.74600
O1356       O  0.86275040  0.38781745  0.70836819    -0.74700
Ni1357     Ni  0.89497467  0.33239728  0.73712079     1.25400
Ni1358     Ni  0.89508866  0.39158743  0.73354637     1.25400
C1359       C  0.85148579  0.35966544  0.70153289     0.87600
C1360       C  0.93838363  0.36582265  0.76939609     0.87500
C1361       C  0.84860104  0.36376636  0.76758021     0.87500
C1362       C  0.94029272  0.35809852  0.70230248     0.87700
C1363       C  0.75023647  0.35063277  0.84587197     0.03000
C1364       C  0.76089505  0.36536080  0.86758505    -0.13200
C1365       C  0.74319512  0.36146184  0.88966100     0.00500
C1366       C  0.71605401  0.33932174  0.89068244    -0.11700
C1367       C  0.70536275  0.32268138  0.86926385     0.03000
C1368       C  0.72126542  0.33109246  0.84652219    -0.11100
H1369       H  0.78330222  0.38032564  0.86735689     0.08500
H1370       H  0.70393626  0.33477506  0.90822113     0.06100
H1371       H  0.71228676  0.32157715  0.82922917     0.05900
C1372       C  0.52457741  0.37989370  0.85404589     0.03000
C1373       C  0.55215622  0.40109253  0.85521577    -0.13200
C1374       C  0.57434152  0.39942652  0.87544301     0.00500
C1375       C  0.56789764  0.37526640  0.89414968    -0.11700
C1376       C  0.53848802  0.35618924  0.89424718     0.03000
C1377       C  0.51708282  0.35901776  0.87402770    -0.11100
H1378       H  0.55569765  0.41856657  0.84012158     0.08500
H1379       H  0.58577155  0.37089388  0.90860847     0.06100
H1380       H  0.49438417  0.34460216  0.87347414     0.05900
C1381       C  0.75404748  0.36412233  0.62383541     0.03000
C1382       C  0.72981133  0.38897467  0.62360755    -0.13200
C1383       C  0.70396879  0.38917804  0.60595645     0.00500
C1384       C  0.70506604  0.36468330  0.58726072    -0.11700
C1385       C  0.73051332  0.34060431  0.58690696     0.03000
C1386       C  0.75434189  0.34019907  0.60551747    -0.11100
H1387       H  0.73189142  0.40809747  0.63735088     0.08500
H1388       H  0.68626766  0.36364158  0.57314787     0.06100
H1389       H  0.77381495  0.32163345  0.60538335     0.05900
C1390       C  0.52984392  0.33394872  0.61983792     0.03000
C1391       C  0.52678934  0.35428519  0.59884974    -0.13200
C1392       C  0.54356847  0.34673292  0.57688339     0.00500
C1393       C  0.56466115  0.31891244  0.57650280    -0.11700
C1394       C  0.57007616  0.29895948  0.59787570     0.03000
C1395       C  0.55179723  0.30683819  0.61940213    -0.11100
H1396       H  0.51026912  0.37550641  0.59941652     0.08500
H1397       H  0.57682924  0.31347778  0.55931302     0.06100
H1398       H  0.55330541  0.29159254  0.63590034     0.05900
C1399       C  0.50967821  0.08784657  0.12640451     0.03000
C1400       C  0.98747589  0.06115492  0.12413732    -0.13200
C1401       C  0.96787041  0.05735521  0.10276864     0.00500
C1402       C  0.97204399  0.08137251  0.08342401    -0.11700
C1403       C  0.99632835  0.10674117  0.08477322     0.03000
C1404       C  0.51476085  0.10960542  0.10648139    -0.11100
H1405       H  0.98624112  0.04351343  0.13930093     0.08500
H1406       H  0.95646782  0.08085211  0.06730014     0.06100
H1407       H  0.53369047  0.12868620  0.10786476     0.05900
C1408       C  0.78153953  0.10661277  0.12776571     0.03000
C1409       C  0.78058265  0.08297880  0.10920243    -0.13200
C1410       C  0.80199631  0.08540706  0.08890184     0.00500
C1411       C  0.82516241  0.11170714  0.08751677    -0.11700
C1412       C  0.82629695  0.13640181  0.10594813     0.03000
C1413       C  0.80343962  0.13369489  0.12578815    -0.11100
H1414       H  0.76224158  0.06321859  0.11018698     0.08500
H1415       H  0.84217716  0.11249153  0.07204601     0.06100
H1416       H  0.80188633  0.15266875  0.13972134     0.05900
O1417       O  0.67947546  0.13673881  0.26326791    -0.74600
O1418       O  0.61000763  0.13131514  0.21460491    -0.74600
O1419       O  0.61254679  0.13971514  0.26446160    -0.74700
O1420       O  0.67643151  0.13023456  0.21362349    -0.74700
O1421       O  0.67480851  0.07490977  0.21772922    -0.74700
O1422       O  0.61103826  0.08491891  0.27079043    -0.74600
O1423       O  0.60802513  0.07645260  0.22094598    -0.74600
O1424       O  0.67754421  0.08138022  0.26761121    -0.74700
Ni1425     Ni  0.64461349  0.13645424  0.23885972     1.25400
Ni1426     Ni  0.64274077  0.07742183  0.24445615     1.25400
C1427       C  0.68956292  0.10958100  0.27351198     0.87600
C1428       C  0.59863063  0.10241453  0.20909748     0.87500
C1429       C  0.60200224  0.11449587  0.27674387     0.87500
C1430       C  0.68547133  0.10141824  0.20665963     0.87700
C1431       C  0.51528133  0.13294907  0.36119974     0.03000
C1432       C  0.52206793  0.11424609  0.38238544    -0.13200
C1433       C  0.99924329  0.11216888  0.40206765     0.00500
C1434       C  0.97015234  0.13163977  0.40041694    -0.11700
C1435       C  0.96567281  0.15521966  0.38098382     0.03000
C1436       C  0.98855503  0.15498017  0.36115083    -0.11100
H1437       H  0.54503914  0.10045220  0.38279540     0.08500
H1438       H  0.95078783  0.12809737  0.41400816     0.06100
H1439       H  0.98608900  0.17152718  0.34539759     0.05900
C1440       C  0.78809471  0.09859829  0.34959375     0.03000
C1441       C  0.78292151  0.11662224  0.37096134    -0.13200
C1442       C  0.80333865  0.11234457  0.39140055     0.00500
C1443       C  0.82783748  0.08739155  0.39122339    -0.11700
C1444       C  0.83357782  0.06807274  0.36978701     0.03000
C1445       C  0.81388740  0.07533423  0.34866423    -0.11100
H1446       H  0.76279260  0.13445551  0.37162007     0.08500
H1447       H  0.84183831  0.08340887  0.40792355     0.06100
H1448       H  0.81746767  0.06285593  0.33135283     0.05900
C1449       C  0.51505633  0.00736312  0.47554006     0.02100
C1450       C  0.99409235  0.48018595  0.47004917     0.02100
C1451       C  0.99780095  0.44995838  0.48305991    -0.18400
C1452       C  0.52065069  0.44708867  0.50254824     0.02100
C1453       C  0.54006286  0.47524742  0.50904880     0.02100
C1454       C  0.53736107  0.00490294  0.49522889    -0.18400
H1455       H  0.55318806  0.02590687  0.49946398     0.04100
H1456       H  0.98277424  0.42871087  0.47804508     0.04100
C1457       C  0.77298514  0.19898558  0.47290985     0.02100
C1458       C  0.79790828  0.22195035  0.48008589     0.02100
C1459       C  0.79066951  0.24533606  0.49839792    -0.18400
C1460       C  0.75919730  0.24642085  0.50963399     0.02100
C1461       C  0.73444803  0.22325313  0.50250518     0.02100
C1462       C  0.74170598  0.19982412  0.48429719    -0.18400
H1463       H  0.72266831  0.18245771  0.47864318     0.04100
H1464       H  0.80960834  0.26291093  0.50387083     0.04100
C1465       C  0.79780184  0.13432859  0.41277185    -0.06300
C1466       C  0.78827887  0.12031097  0.43561027    -0.17400
C1467       C  0.77887630  0.14048853  0.45541800     0.10900
C1468       C  0.77878649  0.17559336  0.45225744    -0.06200
C1469       C  0.78686107  0.18932881  0.42904752    -0.17500
C1470       C  0.79729639  0.16936474  0.40966236     0.10900
S1471       S  0.76735342  0.11970214  0.48398021    -0.32400
S1472       S  0.81007829  0.19027270  0.38146583    -0.32400
H1473       H  0.83439370  0.16679145  0.37512170     0.28900
H1474       H  0.77687174  0.14518007  0.50000862     0.28900
H1475       H  0.78766868  0.09345154  0.43790014     0.19500
H1476       H  0.78632962  0.21611924  0.42631199     0.19500
C1477       C  0.50531373  0.08752242  0.42279035    -0.06300
C1478       C  0.02323886  0.05830302  0.41736108    -0.17400
C1479       C  0.03096560  0.03476576  0.43549023     0.10900
C1480       C  0.51604093  0.03690132  0.45890871    -0.06200
C1481       C  0.49837424  0.06568717  0.46494807    -0.17500
C1482       C  0.49455894  0.09184361  0.44766378     0.10900
S1483       S  0.05974514  0.50224090  0.42741051    -0.32400
S1484       S  0.47787067  0.13021311  0.45931043    -0.32400
H1485       H  0.49768744  0.15088006  0.44409356     0.28900
H1486       H  0.07106630  0.49583330  0.45149644     0.28900
H1487       H  0.03163828  0.05321229  0.39880989     0.19500
H1488       H  0.48788703  0.06793649  0.48331387     0.19500
C1489       C  0.53590229  0.12838459  0.33883340    -0.06300
C1490       C  0.55546644  0.15491568  0.33034661    -0.17400
C1491       C  0.57732562  0.15122776  0.31035866     0.10900
C1492       C  0.57942253  0.12001859  0.29818648    -0.06200
C1493       C  0.55953689  0.09351031  0.30680989    -0.17500
C1494       C  0.53767666  0.09742189  0.32671711     0.10900
S1495       S  0.60365174  0.18628576  0.30216009    -0.32400
S1496       S  0.51238112  0.06202456  0.33553724    -0.32400
H1497       H  0.48506279  0.08048640  0.34387239     0.28900
H1498       H  0.58791658  0.21017260  0.31691254     0.28900
H1499       H  0.55430808  0.17832128  0.34003718     0.19500
H1500       H  0.56059257  0.06962227  0.29774826     0.19500
C1501       C  0.76389078  0.10234915  0.32935762    -0.06300
C1502       C  0.73098750  0.09333220  0.33457800    -0.17400
C1503       C  0.70620896  0.09695562  0.31683513     0.10900
C1504       C  0.71439555  0.10987190  0.29325174    -0.06200
C1505       C  0.74716605  0.11938278  0.28797581    -0.17500
C1506       C  0.77201814  0.11597798  0.30588874     0.10900
S1507       S  0.66397897  0.08554823  0.32454181    -0.32400
S1508       S  0.81329308  0.12964590  0.29780423    -0.32400
H1509       H  0.82251515  0.13925145  0.32169727     0.28900
H1510       H  0.67013440  0.07398349  0.34872337     0.28900
H1511       H  0.72480155  0.08336423  0.35271473     0.19500
H1512       H  0.75348688  0.12898028  0.26974654     0.19500
C1513       C  0.75746589  0.10421895  0.14826774    -0.06300
C1514       C  0.72898329  0.12383357  0.14670887    -0.17400
C1515       C  0.70423533  0.12170802  0.16483169     0.10900
C1516       C  0.70836736  0.09990595  0.18535360    -0.06200
C1517       C  0.73630962  0.07925616  0.18642309    -0.17500
C1518       C  0.76097453  0.08125135  0.16810780     0.10900
S1519       S  0.66676621  0.14586378  0.16093707    -0.32400
S1520       S  0.79634152  0.05415362  0.17123803    -0.32400
H1521       H  0.81902124  0.07439938  0.15816898     0.28900
H1522       H  0.67586660  0.16204621  0.13871272     0.33300
H1523       H  0.72601723  0.14048531  0.13097457     0.19500
H1524       H  0.73957303  0.06247062  0.20205918     0.19500
C1525       C  0.52991613  0.09155178  0.14893683    -0.06300
C1526       C  0.55095093  0.06533019  0.15548427    -0.17400
C1527       C  0.57383258  0.06850304  0.17452318     0.10900
C1528       C  0.57514224  0.09833016  0.18833491    -0.06200
C1529       C  0.55366270  0.12451682  0.18197061    -0.17500
C1530       C  0.53099310  0.12141159  0.16256746     0.10900
S1531       S  0.60238149  0.03440186  0.17853061    -0.32400
S1532       S  0.00387883  0.15619197  0.15639424    -0.32400
H1533       H  0.97756189  0.13722810  0.14700792     0.28900
H1534       H  0.63046260  0.05519422  0.17946716     0.28900
H1535       H  0.55079169  0.04271675  0.14474046     0.19500
H1536       H  0.55423554  0.14741586  0.19234634     0.19500
C1537       C  0.52416794  0.41498880  0.51650762    -0.06300
C1538       C  0.55597239  0.40130673  0.51910178    -0.17400
C1539       C  0.56341684  0.37938457  0.53857634     0.10900
C1540       C  0.53762757  0.36763495  0.55429883    -0.06200
C1541       C  0.50489631  0.37748484  0.54907353    -0.17500
C1542       C  0.49795364  0.40156916  0.53082826     0.10900
S1543       S  0.60673440  0.37128230  0.54389847    -0.32400
S1544       S  0.95617834  0.41723881  0.52784948    -0.32400
H1545       H  0.94133569  0.39599275  0.54557763     0.28900
H1546       H  0.60449940  0.37396390  0.56973699     0.28900
H1547       H  0.57601238  0.41082041  0.50762421     0.19500
H1548       H  0.98480024  0.36756805  0.56030664     0.19500
C1549       C  0.73405684  0.31632008  0.56670521    -0.06300
C1550       C  0.74361801  0.32812569  0.54322693    -0.17400
C1551       C  0.75281643  0.30618447  0.52445372     0.10900
C1552       C  0.75253955  0.27137280  0.52921213    -0.06200
C1553       C  0.74366940  0.25973345  0.55293537    -0.17500
C1554       C  0.73391601  0.28163134  0.57146813     0.10900
S1555       S  0.76467246  0.32452831  0.49506173    -0.32400
S1556       S  0.72167362  0.26381542  0.60088977    -0.32400
H1557       H  0.69915934  0.28914252  0.60696698     0.28900
H1558       H  0.75506082  0.29787946  0.48014398     0.28900
H1559       H  0.74473713  0.35474900  0.53968657     0.19500
H1560       H  0.74364007  0.23319598  0.55688754     0.19500
C1561       C  0.96450656  0.35354856  0.68163574    -0.06300
C1562       C  0.96585571  0.32176036  0.67089057    -0.17400
C1563       C  0.98660870  0.31489291  0.65093596     0.10900
C1564       C  0.00804868  0.33989183  0.64157540    -0.06200
C1565       C  0.00736869  0.37160534  0.65238384    -0.17500
C1566       C  0.98570212  0.37879228  0.67202427     0.10900
S1567       S  0.48287308  0.27416025  0.63743895    -0.32400
S1568       S  0.98699388  0.42019414  0.68427023    -0.32400
H1569       H  0.95428683  0.42723052  0.67703630     0.28900
H1570       H  0.48621945  0.28537007  0.61282315     0.28900
H1571       H  0.94959815  0.30200546  0.67746058     0.19500
H1572       H  0.02364244  0.39104156  0.64528992     0.19500
C1573       C  0.96263546  0.36923997  0.78988925    -0.06300
C1574       C  0.96400762  0.39987942  0.80234441    -0.17400
C1575       C  0.98414307  0.40433883  0.82303563     0.10900
C1576       C  0.00391282  0.37776837  0.83158073    -0.06200
C1577       C  0.00332886  0.34744688  0.81890198    -0.17500
C1578       C  0.98348133  0.34303948  0.79803730     0.10900
S1579       S  0.98239076  0.44403086  0.83823408    -0.32400
S1580       S  0.98706598  0.30391241  0.78230554    -0.32400
H1581       H  0.98763853  0.31857335  0.75853908     0.28900
H1582       H  0.98743228  0.43153220  0.86229836     0.28900
H1583       H  0.94837205  0.42037971  0.79648624     0.19500
H1584       H  0.51886373  0.32706526  0.82518892     0.19500
C1585       C  0.82091018  0.36263473  0.78604524    -0.06300
C1586       C  0.80626999  0.33130502  0.79116542    -0.17400
C1587       C  0.78281437  0.32670559  0.80995963     0.10900
C1588       C  0.77139619  0.35444040  0.82331824    -0.06200
C1589       C  0.78416182  0.38621452  0.81708656    -0.17500
C1590       C  0.80929527  0.39048465  0.79929089     0.10900
S1591       S  0.77114243  0.28425722  0.81725998    -0.32400
S1592       S  0.82684139  0.43156612  0.79588284    -0.32400
H1593       H  0.85956467  0.42048264  0.79938089     0.28900
H1594       H  0.77376928  0.28785447  0.84299445     0.28900
H1595       H  0.81433191  0.30946101  0.78127060     0.19500
H1596       H  0.77579799  0.40775980  0.82722090     0.19500
C1597       C  0.77946650  0.36297531  0.64329152    -0.06300
C1598       C  0.77664074  0.33859972  0.66201101    -0.17400
C1599       C  0.79941915  0.33696730  0.68142578     0.10900
C1600       C  0.82633200  0.35955141  0.68175491    -0.06200
C1601       C  0.82902406  0.38387779  0.66289523    -0.17500
C1602       C  0.80609447  0.38571908  0.64367660     0.10900
S1603       S  0.79147912  0.30708830  0.70589756    -0.32400
S1604       S  0.81234163  0.41749237  0.62020146    -0.32400
H1605       H  0.79802569  0.39987643  0.60067077     0.28900
H1606       H  0.80025072  0.32869638  0.72507954     0.28900
H1607       H  0.75595780  0.32132633  0.66184853     0.19500
H1608       H  0.84948434  0.40141862  0.66292484     0.19500
C1609       C  0.51572020  0.18068090  0.02733495    -0.06300
C1610       C  0.01313392  0.14690275  0.02111234    -0.17400
C1611       C  0.00717288  0.12217544  0.03922302     0.10900
C1612       C  0.50263512  0.13135213  0.06423629    -0.06200
C1613       C  0.50621245  0.16519305  0.07031990    -0.17500
C1614       C  0.51376199  0.18951830  0.05243969     0.10900
S1615       S  0.00631853  0.07958715  0.02910240    -0.32400
S1616       S  0.52040778  0.23148962  0.06285920    -0.32400
H1617       H  0.54030651  0.24176307  0.04276467     0.28900
H1618       H  0.02198361  0.06648120  0.05023240     0.28900
H1619       H  0.01481337  0.13987787  0.00188394     0.19500
H1620       H  0.50324739  0.17288264  0.08931572     0.19500
C1621       C  0.51559325  0.28265824  0.95085611    -0.06300
C1622       C  0.52975646  0.31314757  0.95752457    -0.17400
C1623       C  0.53566192  0.33835504  0.93989324     0.10900
C1624       C  0.53034381  0.33182153  0.91451742    -0.06200
C1625       C  0.51559400  0.30123027  0.90819708    -0.17500
C1626       C  0.50627458  0.27775961  0.92614348     0.10900
S1627       S  0.54796455  0.37849740  0.95134686    -0.32400
S1628       S  0.48177341  0.24285636  0.91614962    -0.32400
H1629       H  0.46800537  0.23447819  0.93924127     0.28900
H1630       H  0.53036443  0.39696187  0.93348405     0.28900
H1631       H  0.53593073  0.31742053  0.97669299     0.19500
H1632       H  0.51076588  0.29545343  0.88906859     0.19500
C1633       C  0.70143914  0.22239669  0.51487644    -0.06300
C1634       C  0.69301009  0.19456896  0.52955270    -0.17400
C1635       C  0.66742384  0.19625899  0.54708604     0.10900
C1636       C  0.65203586  0.22735068  0.55172004    -0.06200
C1637       C  0.65775894  0.25367026  0.53473571    -0.17500
C1638       C  0.68087154  0.25070945  0.51561693     0.10900
S1639       S  0.65520299  0.15783433  0.56225393    -0.32400
S1640       S  0.68375991  0.28424114  0.49326368    -0.32400
H1641       H  0.69962973  0.26550089  0.47491958     0.28900
H1642       H  0.62281833  0.16831432  0.56783564     0.28900
H1643       H  0.70722681  0.17181865  0.52801083     0.19500
H1644       H  0.64544681  0.27738924  0.53684215     0.19500
C1645       C  0.60978217  0.45754157  0.56767626    -0.06300
C1646       C  0.57566262  0.45960174  0.57283135    -0.17400
C1647       C  0.55282197  0.46847186  0.55459903     0.10900
C1648       C  0.56375214  0.47364350  0.53003267    -0.06200
C1649       C  0.59788550  0.47281936  0.52489994    -0.17500
C1650       C  0.62100309  0.46544522  0.54347309     0.10900
S1651       S  0.51009467  0.47263312  0.56394354    -0.32400
S1652       S  0.66422654  0.96735168  0.53513739    -0.32400
H1653       H  0.67503095  0.97929520  0.55805043     0.28900
H1654       H  0.50037330  0.49351361  0.54424980     0.28900
H1655       H  0.56664645  0.45435241  0.59137473     0.19500
H1656       H  0.60648245  0.97715976  0.50613752     0.19500
C1657       C  0.64772742  0.16820012  0.68478709    -0.06300
C1658       C  0.61524382  0.17460328  0.67654111    -0.17400
C1659       C  0.60884529  0.19420502  0.65567334     0.10900
C1660       C  0.63529874  0.20970700  0.64279321    -0.06200
C1661       C  0.66781994  0.20415732  0.65105635    -0.17500
C1662       C  0.67436249  0.18337265  0.67159416     0.10900
S1663       S  0.56628381  0.19645822  0.64565409    -0.32400
S1664       S  0.71707877  0.17741161  0.67974741    -0.32400
H1665       H  0.71580364  0.14287436  0.67571869     0.28900
H1666       H  0.57360989  0.19425569  0.62029358     0.28900
H1667       H  0.59420402  0.16315353  0.68582176     0.19500
H1668       H  0.68834286  0.21568780  0.64118552     0.19500
C1669       C  0.65047030  0.03097421  0.68867982    -0.06300
C1670       C  0.62234825  0.01049502  0.68609070    -0.17400
C1671       C  0.62107503  0.98572616  0.66802483     0.10900
C1672       C  0.64865615  0.48098131  0.65231584    -0.06200
C1673       C  0.67665918  0.00115687  0.65495394    -0.17500
C1674       C  0.67759940  0.02650652  0.67229582     0.10900
S1675       S  0.58377138  0.46108239  0.66598377    -0.32400
S1676       S  0.71307274  0.05387125  0.67076172    -0.32400
H1677       H  0.69398447  0.08310396  0.67204629     0.28900
H1678       H  0.59855889  0.43292485  0.65545141     0.28900
H1679       H  0.60128946  0.01357764  0.69832054     0.19500
H1680       H  0.69739761  0.99832608  0.64234934     0.19500
C1681       C  0.61834607  0.25154707  0.91649248    -0.06300
C1682       C  0.59095629  0.23025091  0.91247517    -0.17400
C1683       C  0.56929000  0.22061956  0.93145788     0.10900
C1684       C  0.57092391  0.23643510  0.95444433    -0.06200
C1685       C  0.59767872  0.25794754  0.95892068    -0.17500
C1686       C  0.62233926  0.26406565  0.94083016     0.10900
S1687       S  0.54074029  0.18714522  0.92523183    -0.32400
S1688       S  0.65888864  0.28577534  0.95090700    -0.32400
H1689       H  0.68091778  0.26708869  0.93643351     0.28900
H1690       H  0.53809623  0.17526358  0.94965397     0.28900
H1691       H  0.58620864  0.22020435  0.89440485     0.19500
H1692       H  0.59972073  0.26949570  0.97683224     0.19500
C1693       C  0.65999075  0.17195533  0.79377927    -0.06300
C1694       C  0.63045448  0.18368413  0.80445415    -0.17400
C1695       C  0.63070934  0.20627204  0.82393336     0.10900
C1696       C  0.66121871  0.21657919  0.83409497    -0.06200
C1697       C  0.69073717  0.20521765  0.82347490    -0.17500
C1698       C  0.69059627  0.18386795  0.80325316     0.10900
S1699       S  0.59118298  0.22195836  0.83420546    -0.32400
S1700       S  0.73059878  0.17362817  0.79060334    -0.32400
H1701       H  0.72219989  0.18460134  0.76663358     0.28900
H1702       H  0.60253198  0.25436838  0.83907980     0.28900
H1703       H  0.60673429  0.17562300  0.79738029     0.19500
H1704       H  0.71426758  0.21340552  0.83085355     0.19500
C1705       C  0.64622045  0.48746393  0.83690621    -0.06300
C1706       C  0.67514544  0.98726806  0.82241386    -0.17400
C1707       C  0.67905549  0.00936015  0.80219423     0.10900
C1708       C  0.65378848  0.03276189  0.79668196    -0.06200
C1709       C  0.62530616  0.03308145  0.81175374    -0.17500
C1710       C  0.62136721  0.01111351  0.83167055     0.10900
S1711       S  0.71583971  0.00510412  0.78359017    -0.32400
S1712       S  0.58396666  0.01483318  0.84986914    -0.32400
H1713       H  0.59864476  0.50699482  0.87271545     0.28900
H1714       H  0.69883458  0.00709323  0.76098388     0.28900
H1715       H  0.69430797  0.46913834  0.82642545     0.19500
H1716       H  0.60582155  0.05103345  0.80826731     0.19500
C1717       C  0.77127248  0.42659195  0.94847879    -0.06300
C1718       C  0.76747339  0.39239215  0.95356516    -0.17400
C1719       C  0.75896648  0.37012753  0.93486829     0.10900
C1720       C  0.75300751  0.38256676  0.91072562    -0.06200
C1721       C  0.75796913  0.41671792  0.90574288    -0.17500
C1722       C  0.76815307  0.43845588  0.92402671     0.10900
S1723       S  0.75678101  0.32648850  0.94299772    -0.32400
S1724       S  0.77644378  0.48107279  0.91497162    -0.32400
H1725       H  0.79836155  0.48804862  0.93434085     0.28900
H1726       H  0.76799006  0.31504868  0.91998931     0.28900
H1727       H  0.77027173  0.38318471  0.97234796     0.19500
H1728       H  0.75403071  0.42664131  0.88727091     0.19500
C1729       C  0.78238103  0.01875874  0.02905484    -0.06300
C1730       C  0.78850208  0.00593636  0.05284783    -0.17400
C1731       C  0.79711669  0.02685073  0.07226039     0.10900
C1732       C  0.79785986  0.06175562  0.06833050    -0.06200
C1733       C  0.79105087  0.07463371  0.04466910    -0.17500
C1734       C  0.78390402  0.05359152  0.02496678     0.10900
S1735       S  0.80845614  0.00733685  0.10120648    -0.32400
S1736       S  0.77820854  0.07271745  0.99498690    -0.32400
H1737       H  0.79372558  0.04740316  0.98152108     0.28900
H1738       H  0.83146592  0.03194329  0.10794733     0.28900
H1739       H  0.78828362  0.97920387  0.05596694     0.19500
H1740       H  0.79132950  0.10135347  0.04150336     0.19500
C1741       C  0.66646481  0.45559449  0.92454594    -0.06300
C1742       C  0.67746516  0.48813995  0.92968241    -0.17400
C1743       C  0.70164296  0.49421991  0.94757659     0.10900
C1744       C  0.71399888  0.46743836  0.96201233    -0.06200
C1745       C  0.69882644  0.43604855  0.95977772    -0.17500
C1746       C  0.67652920  0.42941373  0.94065765     0.10900
S1747       S  0.71710373  0.03627871  0.94954658    -0.32400
S1748       S  0.66523011  0.38639565  0.93650367    -0.32400
H1749       H  0.66961017  0.38726132  0.91072969     0.28900
H1750       H  0.75052087  0.02753820  0.95223565     0.28900
H1751       H  0.66890862  0.00887215  0.91841122     0.19500
H1752       H  0.70708797  0.41559522  0.97143745     0.19500
C1753       C  0.83892417  0.47741533  0.01492053    -0.06300
C1754       C  0.85407155  0.00875872  0.01664744    -0.17400
C1755       C  0.87550989  0.01597920  0.03607741     0.10900
C1756       C  0.88560462  0.49018678  0.05255168    -0.06200
C1757       C  0.87486386  0.45742894  0.04774007    -0.17500
C1758       C  0.85077634  0.45096585  0.02978144     0.10900
S1759       S  0.88417914  0.05940568  0.04064163    -0.32400
S1760       S  0.83279160  0.40980492  0.02798672    -0.32400
H1761       H  0.85487352  0.39384240  0.04427686     0.28900
H1762       H  0.87666444  0.05839169  0.06604416     0.28900
H1763       H  0.84563230  0.02895047  0.00481003     0.19500
H1764       H  0.88342327  0.43715054  0.05940436     0.19500
C1765       C  0.91026383  0.20728418  0.05812694    -0.06300
C1766       C  0.91972624  0.24050166  0.05285989    -0.17400
C1767       C  0.94349036  0.24827710  0.03464583     0.10900
C1768       C  0.95643737  0.22262041  0.01974505    -0.06200
C1769       C  0.94282690  0.19054908  0.02234098    -0.17500
C1770       C  0.92208415  0.18212700  0.04222165     0.10900
S1771       S  0.95747009  0.29097049  0.03271534    -0.32400
S1772       S  0.91609576  0.13830171  0.04794308    -0.32400
H1773       H  0.92247506  0.14014666  0.07342463     0.28900
H1774       H  0.99100932  0.28367613  0.02847703     0.28900
H1775       H  0.91015672  0.26049346  0.06406264     0.19500
H1776       H  0.95136540  0.17094425  0.01033897     0.19500
C1777       C  0.87782136  0.21860749  0.42834115    -0.06300
C1778       C  0.87268221  0.19189311  0.44510230    -0.17400
C1779       C  0.85074182  0.19455069  0.46506089     0.10900
C1780       C  0.83061050  0.22309459  0.46705891    -0.06200
C1781       C  0.83843673  0.25115151  0.45242597    -0.17500
C1782       C  0.86287971  0.24967257  0.43394237     0.10900
S1783       S  0.84853417  0.16022881  0.48679519    -0.32400
S1784       S  0.87441032  0.28847111  0.41901837    -0.32400
H1785       H  0.90683220  0.27844366  0.41311043     0.28900
H1786       H  0.83337947  0.17828111  0.50584187     0.28900
H1787       H  0.88465403  0.16814988  0.44226230     0.19500
H1788       H  0.82451064  0.27395934  0.45471836     0.19500
C1789       C  0.89105879  0.41676815  0.18177926    -0.06300
C1790       C  0.88757626  0.45114071  0.18546771    -0.17400
C1791       C  0.89171810  0.47414846  0.16583515     0.10900
C1792       C  0.90053665  0.46269606  0.14203892    -0.06200
C1793       C  0.90311363  0.42811692  0.13842334    -0.17500
C1794       C  0.89835544  0.40517820  0.15792776     0.10900
S1795       S  0.88451194  0.51750286  0.17223277    -0.32400
S1796       S  0.90204310  0.36101551  0.15239278    -0.32400
H1797       H  0.90881002  0.36351096  0.12692253     0.28900
H1798       H  0.87261365  0.52580451  0.14856442     0.28900
H1799       H  0.88176037  0.46011499  0.20377487     0.19500
H1800       H  0.90969763  0.41909092  0.12029469     0.19500
C1801       C  0.89049095  0.27830621  0.18565900    -0.06300
C1802       C  0.85926848  0.26914295  0.17638139    -0.17400
C1803       C  0.85589342  0.24708681  0.15685797     0.10900
C1804       C  0.88425603  0.23202032  0.14655179    -0.06200
C1805       C  0.91553910  0.24027636  0.15598368    -0.17500
C1806       C  0.91904301  0.26339767  0.17510284     0.10900
S1807       S  0.81459353  0.24102448  0.14504574    -0.32400
S1808       S  0.96057401  0.27269358  0.18478602    -0.32400
H1809       H  0.95795567  0.30660601  0.17813953     0.28900
H1810       H  0.82415251  0.24094244  0.12002222     0.28900
H1811       H  0.83690604  0.28018578  0.18373016     0.19500
H1812       H  0.93748064  0.22901801  0.14809569     0.19500
C1813       C  0.89801591  0.24280031  0.33816222    -0.06300
C1814       C  0.86916363  0.24123510  0.32383237    -0.17400
C1815       C  0.86575419  0.26078672  0.30217459     0.10900
C1816       C  0.89147428  0.28308264  0.29487093    -0.06200
C1817       C  0.92011615  0.28446646  0.30954759    -0.17500
C1818       C  0.92351174  0.26504055  0.33095974     0.10900
S1819       S  0.82886717  0.25475375  0.28420431    -0.32400
S1820       S  0.96105613  0.27018987  0.34852631    -0.32400
H1821       H  0.94633460  0.26540866  0.37189630     0.28900
H1822       H  0.84571875  0.25481524  0.26138254     0.28900
H1823       H  0.84961948  0.22398635  0.32915366     0.19500
H1824       H  0.94001269  0.30153219  0.30468539     0.19500
C1825       C  0.92779421  0.50135988  0.40970509    -0.06300
C1826       C  0.91728774  0.00634987  0.43422456    -0.17400
C1827       C  0.93771060  0.99831359  0.45436982     0.10900
C1828       C  0.96886479  0.48338738  0.45020036    -0.06200
C1829       C  0.97862342  0.47682514  0.42592591    -0.17500
C1830       C  0.95979526  0.48773359  0.40579150     0.10900
S1831       S  0.92278643  0.00838320  0.48483492    -0.32400
S1832       S  0.97998326  0.48704145  0.37598936    -0.32400
H1833       H  0.96403331  0.51575265  0.36685700     0.28900
H1834       H  0.94204090  0.98523268  0.49802590     0.28900
H1835       H  0.89292059  0.01648046  0.43780715     0.19500
H1836       H  0.00243597  0.46545377  0.42256237     0.19500
C1837       C  0.88148189  0.46660743  0.32900012    -0.06300
C1838       C  0.85716614  0.44188648  0.32732715    -0.17400
C1839       C  0.85872369  0.41771082  0.30898869     0.10900
C1840       C  0.88475321  0.41869945  0.29126618    -0.06200
C1841       C  0.90903554  0.44365614  0.29298257    -0.17500
C1842       C  0.90753638  0.46770596  0.31147986     0.10900
S1843       S  0.82798100  0.38505998  0.31045388    -0.32400
S1844       S  0.93949942  0.49921883  0.31163661    -0.32400
H1845       H  0.92036907  0.02436862  0.32243926     0.28900
H1846       H  0.85070609  0.35930685  0.30589207     0.28900
H1847       H  0.83749614  0.44067676  0.34101444     0.19500
H1848       H  0.92901005  0.44482976  0.27955211     0.19500
C1849       C  0.88041399  0.98942997  0.35016548     0.03000
C1850       C  0.85799217  0.51586828  0.35057005    -0.13200
C1851       C  0.85852608  0.53976800  0.36959752     0.00500
C1852       C  0.88267766  0.53552918  0.38845408    -0.11700
C1853       C  0.90410546  0.50763719  0.38890883     0.03000
C1854       C  0.90195136  0.98446302  0.36984372    -0.11100
H1855       H  0.84023408  0.51685416  0.33578424     0.08500
H1856       H  0.88532747  0.55368174  0.40283394     0.06100
H1857       H  0.91709064  0.96223699  0.37015103     0.05900
O1858       O  0.91511605  0.88473533  0.26281969    -0.74600
O1859       O  0.91837761  0.81583008  0.21382067    -0.74600
O1860       O  0.91732339  0.88339691  0.21236510    -0.74700
O1861       O  0.91716265  0.81750699  0.26404804    -0.74700
O1862       O  0.86209511  0.81605556  0.26408022    -0.74700
O1863       O  0.86210665  0.88215459  0.21137627    -0.74600
O1864       O  0.86340095  0.81465564  0.21374814    -0.74600
O1865       O  0.85999736  0.88321842  0.26166197    -0.74700
Ni1866     Ni  0.91895217  0.85046056  0.23826811     1.25400
Ni1867     Ni  0.85996250  0.84896887  0.23764515     1.25400
C1868       C  0.88680490  0.89447922  0.27086360     0.87600
C1869       C  0.89114143  0.80398039  0.20549577     0.87500
C1870       C  0.88991920  0.89331075  0.20310135     0.87500
C1871       C  0.88987563  0.80625392  0.27303723     0.87700
C1872       C  0.90227740  0.72051804  0.36002103     0.03000
C1873       C  0.92646747  0.69560676  0.35947898    -0.13200
C1874       C  0.93746734  0.67979234  0.38137850     0.00500
C1875       C  0.92263205  0.68931693  0.40391330    -0.11700
C1876       C  0.89613243  0.71223241  0.40460397     0.03000
C1877       C  0.88593265  0.72729215  0.38222861    -0.11100
H1878       H  0.93707743  0.68972900  0.34172423     0.08500
H1879       H  0.93201469  0.67934660  0.42113572     0.06100
H1880       H  0.86562913  0.74479234  0.38190468     0.05900
C1881       C  0.88156826  0.70926350  0.12519527     0.03000
C1882       C  0.89811609  0.71688205  0.10306690    -0.13200
C1883       C  0.89086045  0.69963006  0.08127664     0.00500
C1884       C  0.86555371  0.67523497  0.08204066    -0.11700
C1885       C  0.85104291  0.66465592  0.10468252     0.03000
C1886       C  0.86022149  0.68167389  0.12626399    -0.11100
H1887       H  0.91627157  0.73678996  0.10285405     0.08500
H1888       H  0.85746067  0.66451165  0.06489426     0.06100
H1889       H  0.85021425  0.67453547  0.14410754     0.05900
C1890       C  0.90829615  0.98538899  0.12060945     0.03000
C1891       C  0.89325801  0.97963514  0.09785442    -0.13200
C1892       C  0.90346554  0.49666311  0.07627167     0.00500
C1893       C  0.92970102  0.51977219  0.07787156    -0.11700
C1894       C  0.94300003  0.52904722  0.10095681     0.03000
C1895       C  0.93219668  0.51082159  0.12220513    -0.11100
H1896       H  0.87333128  0.96155423  0.09711785     0.08500
H1897       H  0.93946592  0.53046492  0.06095182     0.06100
H1898       H  0.94218215  0.51567840  0.14021625     0.05900
C1899       C  0.77938503  0.49492539  0.00840681     0.02100
C1900       C  0.80682738  0.97496560  0.00149069     0.02100
C1901       C  0.80341375  0.95265082  0.98201389    -0.18400
C1902       C  0.77339445  0.94988497  0.96932582     0.02100
C1903       C  0.74579790  0.96972414  0.97608392     0.02100
C1904       C  0.74913670  0.49194340  0.99579311    -0.18400
H1905       H  0.72822508  0.50706501  0.00127374     0.04100
H1906       H  0.82438624  0.93765874  0.97643446     0.04100
C1907       C  0.64147789  0.96286175  0.85719599     0.03000
C1908       C  0.65841986  0.96672840  0.87936393    -0.13200
C1909       C  0.64789938  0.94993008  0.90099290     0.00500
C1910       C  0.61963110  0.92914479  0.89980284    -0.11700
C1911       C  0.60398297  0.92240041  0.87695823     0.03000
C1912       C  0.61597878  0.93931557  0.85570384    -0.11100
H1913       H  0.67900710  0.98407317  0.87988914     0.08500
H1914       H  0.60974922  0.91881129  0.91682699     0.06100
H1915       H  0.60499820  0.93572919  0.83779703     0.05900
C1916       C  0.66299423  0.74014428  0.85499429     0.03000
C1917       C  0.64571275  0.73373038  0.87691779    -0.13200
C1918       C  0.64190247  0.75836623  0.89505959     0.00500
C1919       C  0.65903200  0.78907879  0.89132938    -0.11700
C1920       C  0.68110737  0.79390466  0.87098955     0.03000
C1921       C  0.68179601  0.76921972  0.85271773    -0.11100
H1922       H  0.63446886  0.70939376  0.87922451     0.08500
H1923       H  0.65505537  0.80918761  0.90402248     0.06100
H1924       H  0.69729225  0.77178359  0.83652844     0.05900
O1925       O  0.62921669  0.63574422  0.76705155    -0.74600
O1926       O  0.62423756  0.56752940  0.71773056    -0.74600
O1927       O  0.62742274  0.56844035  0.76773219    -0.74700
O1928       O  0.62490001  0.63460814  0.71709357    -0.74700
O1929       O  0.67970115  0.63391196  0.71372641    -0.74700
O1930       O  0.68249121  0.56780177  0.76648436    -0.74600
O1931       O  0.67927647  0.56641303  0.71639307    -0.74600
O1932       O  0.68404688  0.63513006  0.76408228    -0.74700
Ni1933     Ni  0.62453839  0.60162808  0.74252331     1.25400
Ni1934     Ni  0.68336540  0.60082305  0.74008041     1.25400
C1935       C  0.65768242  0.64659073  0.77387583     0.87600
C1936       C  0.65127500  0.55616008  0.70858000     0.87500
C1937       C  0.65501212  0.55725255  0.77578842     0.87500
C1938       C  0.65142226  0.64472492  0.70637131     0.87700
C1939       C  0.64829924  0.95837240  0.63100039     0.03000
C1940       C  0.67103879  0.93222078  0.62967069    -0.13200
C1941       C  0.67664893  0.91493586  0.60741451     0.00500
C1942       C  0.65651086  0.92343598  0.58686479    -0.11700
C1943       C  0.63235795  0.94881952  0.58848321     0.03000
C1944       C  0.62897550  0.96633522  0.61055047    -0.11100
H1945       H  0.68447612  0.92619848  0.64632047     0.08500
H1946       H  0.65961178  0.91092234  0.56949292     0.06100
H1947       H  0.61185248  0.98704672  0.61160622     0.05900
C1948       C  0.62926961  0.72983214  0.61999587     0.03000
C1949       C  0.60639553  0.75610275  0.62004755    -0.13200
C1950       C  0.59475642  0.77055681  0.59776982     0.00500
C1951       C  0.60762524  0.75785949  0.57541492    -0.11700
C1952       C  0.63369470  0.73457423  0.57518124     0.03000
C1953       C  0.64446140  0.72098987  0.59779311    -0.11100
H1954       H  0.59769474  0.76433428  0.63780516     0.08500
H1955       H  0.59791659  0.76598708  0.55785400     0.06100
H1956       H  0.66455512  0.70325223  0.59830790     0.05900
C1957       C  0.51495926  0.70638713  0.00723650     0.02100
C1958       C  0.98661292  0.72695298  0.00376730     0.02100
C1959       C  0.98716496  0.75132554  0.98491270    -0.18400
C1960       C  0.51490263  0.75528311  0.96941534     0.02100
C1961       C  0.54266319  0.73420783  0.97230323     0.02100
C1962       C  0.54253735  0.71014500  0.99139504    -0.18400
H1963       H  0.56382362  0.69404355  0.99376848     0.04100
H1964       H  0.96581308  0.76720944  0.98211526     0.04100
O1965       O  0.86206742  0.83240012  0.71132107    -0.74600
O1966       O  0.92768688  0.83713490  0.76275866    -0.74600
O1967       O  0.86084956  0.83593036  0.76103631    -0.74700
O1968       O  0.92898113  0.83176356  0.71285737    -0.74700
O1969       O  0.92979611  0.88692364  0.70884468    -0.74700
O1970       O  0.85992921  0.89118625  0.75823370    -0.74600
O1971       O  0.92752958  0.89236861  0.75899289    -0.74600
O1972       O  0.86275172  0.88782480  0.70837154    -0.74700
Ni1973     Ni  0.89497385  0.83239857  0.73711961     1.25400
Ni1974     Ni  0.89509139  0.89158919  0.73354998     1.25400
C1975       C  0.85148472  0.85967437  0.70153448     0.87600
C1976       C  0.93838616  0.86581586  0.76939712     0.87500
C1977       C  0.84860260  0.86376579  0.76758195     0.87500
C1978       C  0.94029318  0.85810287  0.70230274     0.87700
C1979       C  0.75023187  0.85063001  0.84586858     0.03000
C1980       C  0.76089509  0.86535527  0.86758154    -0.13200
C1981       C  0.74319859  0.86145729  0.88965890     0.00500
C1982       C  0.71605770  0.83931735  0.89068249    -0.11700
C1983       C  0.70536284  0.82267770  0.86926473     0.03000
C1984       C  0.72125982  0.83109084  0.84652132    -0.11100
H1985       H  0.78330432  0.88031795  0.86735239     0.08500
H1986       H  0.70394308  0.83476876  0.90822277     0.06100
H1987       H  0.71227624  0.82157587  0.82922925     0.05900
C1988       C  0.52457219  0.87988157  0.85405484     0.03000
C1989       C  0.55215257  0.90107902  0.85521852    -0.13200
C1990       C  0.57434399  0.89941418  0.87544196     0.00500
C1991       C  0.56790620  0.87525473  0.89415007    -0.11700
C1992       C  0.53849551  0.85617953  0.89425405     0.03000
C1993       C  0.51708279  0.85900800  0.87403892    -0.11100
H1994       H  0.55568933  0.91855154  0.84012329     0.08500
H1995       H  0.58578518  0.87088165  0.90860526     0.06100
H1996       H  0.49438331  0.84459324  0.87349034     0.05900
C1997       C  0.75405025  0.86413426  0.62383210     0.03000
C1998       C  0.72981152  0.88898450  0.62360494    -0.13200
C1999       C  0.70396813  0.88918613  0.60595439     0.00500
C2000       C  0.70506724  0.86469164  0.58725826    -0.11700
C2001       C  0.73051664  0.84061485  0.58690367     0.03000
C2002       C  0.75434597  0.84021159  0.60551362    -0.11100
H2003       H  0.73189000  0.90810675  0.63734908     0.08500
H2004       H  0.68626873  0.86364743  0.57314639     0.06100
H2005       H  0.77382040  0.82164645  0.60537931     0.05900
C2006       C  0.52983500  0.83393615  0.61984439     0.03000
C2007       C  0.52677760  0.85427262  0.59885646    -0.13200
C2008       C  0.54355410  0.84672163  0.57688872     0.00500
C2009       C  0.56464604  0.81890035  0.57650615    -0.11700
C2010       C  0.57006548  0.79894699  0.59787871     0.03000
C2011       C  0.55179009  0.80682686  0.61940701    -0.11100
H2012       H  0.51025817  0.87549368  0.59942483     0.08500
H2013       H  0.57681080  0.81346570  0.55931411     0.06100
H2014       H  0.55330318  0.79158434  0.63590614     0.05900
C2015       C  0.50968498  0.58782174  0.12640517     0.03000
C2016       C  0.98747890  0.56115017  0.12414152    -0.13200
C2017       C  0.96788008  0.55734799  0.10276937     0.00500
C2018       C  0.97205925  0.58136413  0.08342474    -0.11700
C2019       C  0.99634186  0.60673361  0.08477735     0.03000
C2020       C  0.51476997  0.60958055  0.10648221    -0.11100
H2021       H  0.98624048  0.54350922  0.13930660     0.08500
H2022       H  0.95648820  0.58084252  0.06729763     0.06100
H2023       H  0.53370197  0.62865707  0.10786536     0.05900
C2024       C  0.78155436  0.60661224  0.12777360     0.03000
C2025       C  0.78059472  0.58297878  0.10921025    -0.13200
C2026       C  0.80200768  0.58540555  0.08890930     0.00500
C2027       C  0.82517595  0.61170380  0.08752412    -0.11700
C2028       C  0.82631347  0.63639747  0.10595620     0.03000
C2029       C  0.80345697  0.63369198  0.12579657    -0.11100
H2030       H  0.76225123  0.56321970  0.11019485     0.08500
H2031       H  0.84219026  0.61248751  0.07205256     0.06100
H2032       H  0.80190572  0.65266534  0.13973008     0.05900
O2033       O  0.67947040  0.63675356  0.26326558    -0.74600
O2034       O  0.61000885  0.63130766  0.21460024    -0.74600
O2035       O  0.61254016  0.63971720  0.26445592    -0.74700
O2036       O  0.67643321  0.63024103  0.21362224    -0.74700
O2037       O  0.67482049  0.57491646  0.21773330    -0.74700
O2038       O  0.61104324  0.58492171  0.27079019    -0.74600
O2039       O  0.60803607  0.57644596  0.22094669    -0.74600
O2040       O  0.67755040  0.58139491  0.26761404    -0.74700
Ni2041     Ni  0.64461089  0.63645821  0.23885605     1.25400
Ni2042     Ni  0.64274959  0.57742622  0.24445809     1.25400
C2043       C  0.68956387  0.60959916  0.27351110     0.87600
C2044       C  0.59863696  0.60240399  0.20909574     0.87500
C2045       C  0.60200067  0.61449780  0.27674067     0.87500
C2046       C  0.68548010  0.60142518  0.20666233     0.87700
C2047       C  0.51527629  0.63294019  0.36119670     0.03000
C2048       C  0.52207085  0.61425228  0.38238784    -0.13200
C2049       C  0.99923996  0.61216330  0.40207174     0.00500
C2050       C  0.97014999  0.63163528  0.40041916    -0.11700
C2051       C  0.96567235  0.65521406  0.38098511     0.03000
C2052       C  0.98855439  0.65497095  0.36115201    -0.11100
H2053       H  0.54504870  0.60046789  0.38280146     0.08500
H2054       H  0.95078381  0.62809432  0.41400930     0.06100
H2055       H  0.98608844  0.67151702  0.34539753     0.05900
C2056       C  0.78808183  0.59859891  0.34959947     0.03000
C2057       C  0.78291962  0.61662861  0.37096588    -0.13200
C2058       C  0.80334061  0.61234976  0.39140251     0.00500
C2059       C  0.82783488  0.58739258  0.39122393    -0.11700
C2060       C  0.83356564  0.56806844  0.36978893     0.03000
C2061       C  0.81386820  0.57532738  0.34866923    -0.11100
H2062       H  0.76279561  0.63446762  0.37162593     0.08500
H2063       H  0.84183954  0.58341057  0.40792285     0.06100
H2064       H  0.81743964  0.56284413  0.33135922     0.05900
C2065       C  0.51506983  0.50737424  0.47554372     0.02100
C2066       C  0.99410697  0.98019722  0.47005139     0.02100
C2067       C  0.99781894  0.94997127  0.48306348    -0.18400
C2068       C  0.52063227  0.94708374  0.50255360     0.02100
C2069       C  0.54004725  0.97524253  0.50904976     0.02100
C2070       C  0.53737398  0.50491128  0.49523252    -0.18400
H2071       H  0.55319838  0.52591557  0.49947108     0.04100
H2072       H  0.98279120  0.92872290  0.47805165     0.04100
C2073       C  0.77299180  0.69898224  0.47291612     0.02100
C2074       C  0.79791473  0.72194739  0.48009174     0.02100
C2075       C  0.79067422  0.74533584  0.49840164    -0.18400
C2076       C  0.75920068  0.74642266  0.50963574     0.02100
C2077       C  0.73445211  0.72325395  0.50250733     0.02100
C2078       C  0.74171196  0.69982196  0.48430192    -0.18400
H2079       H  0.72267465  0.68245451  0.47864803     0.04100
H2080       H  0.80961236  0.76291216  0.50387378     0.04100
C2081       C  0.79780801  0.63433291  0.41277462    -0.06300
C2082       C  0.78829048  0.62031234  0.43561333    -0.17400
C2083       C  0.77888706  0.64048713  0.45542222     0.10900
C2084       C  0.77879269  0.67559193  0.45226296    -0.06200
C2085       C  0.78686205  0.68933031  0.42905302    -0.17500
C2086       C  0.79729684  0.66936916  0.40966619     0.10900
S2087       S  0.76736798  0.61969637  0.48398357    -0.32400
S2088       S  0.81006919  0.69028163  0.38146907    -0.32400
H2089       H  0.83438314  0.66680202  0.37511880     0.28900
H2090       H  0.77687702  0.64517621  0.50001326     0.28900
H2091       H  0.78768384  0.59345377  0.43790215     0.19500
H2092       H  0.78632642  0.71612059  0.42631867     0.19500
C2093       C  0.50532283  0.58753438  0.42279629    -0.06300
C2094       C  0.02323586  0.55829833  0.41736818    -0.17400
C2095       C  0.03095827  0.53475984  0.43549762     0.10900
C2096       C  0.51605422  0.53691483  0.45891515    -0.06200
C2097       C  0.49838009  0.56569664  0.46495312    -0.17500
C2098       C  0.49456165  0.59185259  0.44766871     0.10900
S2099       S  0.05974984  0.00224571  0.42739946    -0.32400
S2100       S  0.47785845  0.63021637  0.45931379    -0.32400
H2101       H  0.49766847  0.65088996  0.44409703     0.28900
H2102       H  0.07106454  0.99582263  0.45148486     0.28900
H2103       H  0.03164080  0.55320871  0.39881849     0.19500
H2104       H  0.48788776  0.56794260  0.48331806     0.19500
C2105       C  0.53590309  0.62837572  0.33883321    -0.06300
C2106       C  0.55546997  0.65490790  0.33035119    -0.17400
C2107       C  0.57734069  0.65122095  0.31036858     0.10900
C2108       C  0.57942126  0.62001898  0.29818411    -0.06200
C2109       C  0.55953572  0.59350911  0.30680501    -0.17500
C2110       C  0.53768189  0.59741374  0.32671675     0.10900
S2111       S  0.60368337  0.68627087  0.30216910    -0.32400
S2112       S  0.51240298  0.56200698  0.33554309    -0.32400
H2113       H  0.48508242  0.58045613  0.34388925     0.28900
H2114       H  0.58850532  0.70999412  0.31737790     0.28900
H2115       H  0.55428938  0.67831380  0.34003657     0.19500
H2116       H  0.56059027  0.56962373  0.29773998     0.19500
C2117       C  0.76387902  0.60236064  0.32936274    -0.06300
C2118       C  0.73095960  0.59341278  0.33459382    -0.17400
C2119       C  0.70618591  0.59704647  0.31684827     0.10900
C2120       C  0.71439440  0.60989798  0.29325080    -0.06200
C2121       C  0.74718097  0.61933860  0.28796273    -0.17500
C2122       C  0.77202784  0.61592857  0.30587887     0.10900
S2123       S  0.66393713  0.58572324  0.32456423    -0.32400
S2124       S  0.81332376  0.62951556  0.29777984    -0.32400
H2125       H  0.82255185  0.63916973  0.32166059     0.28900
H2126       H  0.67005075  0.57431279  0.34879082     0.28900
H2127       H  0.72475801  0.58348559  0.35273978     0.19500
H2128       H  0.75351723  0.62888587  0.26972233     0.19500
C2129       C  0.75747977  0.60422158  0.14827455    -0.06300
C2130       C  0.72899202  0.62382765  0.14670937    -0.17400
C2131       C  0.70424093  0.62169985  0.16482958     0.10900
C2132       C  0.70838064  0.59991289  0.18535930    -0.06200
C2133       C  0.73632862  0.57927132  0.18643536    -0.17500
C2134       C  0.76099329  0.58126376  0.16811993     0.10900
S2135       S  0.66676621  0.64584531  0.16092921    -0.32400
S2136       S  0.79636664  0.55417579  0.17125589    -0.32400
H2137       H  0.81904499  0.57443373  0.15819576     0.28900
H2138       H  0.67568385  0.66169676  0.13853598     0.33300
H2139       H  0.72602845  0.64048102  0.13097528     0.19500
H2140       H  0.73959588  0.56249421  0.20207583     0.19500
C2141       C  0.52992069  0.59152741  0.14893844    -0.06300
C2142       C  0.55095225  0.56530498  0.15549013    -0.17400
C2143       C  0.57383381  0.56848064  0.17452893     0.10900
C2144       C  0.57514735  0.59831267  0.18833494    -0.06200
C2145       C  0.55366919  0.62449892  0.18196738    -0.17500
C2146       C  0.53099872  0.62138981  0.16256564     0.10900
S2147       S  0.60237675  0.53437579  0.17854382    -0.32400
S2148       S  0.00387845  0.65618958  0.15639914    -0.32400
H2149       H  0.97756152  0.63722360  0.14701505     0.28900
H2150       H  0.63046198  0.55516322  0.17947491     0.28900
H2151       H  0.55079054  0.54268818  0.14474976     0.19500
H2152       H  0.55424338  0.64740036  0.19233960     0.19500
C2153       C  0.52415012  0.91498581  0.51651628    -0.06300
C2154       C  0.55595413  0.90130140  0.51910841    -0.17400
C2155       C  0.56339967  0.87937709  0.53858174     0.10900
C2156       C  0.53761177  0.86762791  0.55430581    -0.06200
C2157       C  0.50488073  0.87748315  0.54908433    -0.17500
C2158       C  0.49793757  0.90157006  0.53084072     0.10900
S2159       S  0.60671738  0.87127001  0.54389965    -0.32400
S2160       S  0.95619955  0.91725814  0.52785342    -0.32400
H2161       H  0.94134498  0.89596822  0.54554713     0.28900
H2162       H  0.60448705  0.87395009  0.56973850     0.28900
H2163       H  0.57599319  0.91081338  0.50762921     0.19500
H2164       H  0.98481970  0.86759120  0.56031256     0.19500
C2165       C  0.73405884  0.81632883  0.56670268    -0.06300
C2166       C  0.74361793  0.82813172  0.54322317    -0.17400
C2167       C  0.75281617  0.80618837  0.52445107     0.10900
C2168       C  0.75254086  0.77137717  0.52921184    -0.06200
C2169       C  0.74367090  0.75974041  0.55293583    -0.17500
C2170       C  0.73391782  0.78164049  0.57146736     0.10900
S2171       S  0.76466987  0.82452881  0.49505734    -0.32400
S2172       S  0.72167583  0.76382732  0.60088998    -0.32400
H2173       H  0.69916206  0.78915525  0.60696630     0.28900
H2174       H  0.75506436  0.79787536  0.48014194     0.28900
H2175       H  0.74473649  0.85475515  0.53968102     0.19500
H2176       H  0.74364190  0.73320394  0.55688966     0.19500
C2177       C  0.96450663  0.85355449  0.68163546    -0.06300
C2178       C  0.96584200  0.82177235  0.67087993    -0.17400
C2179       C  0.98659768  0.81490541  0.65092673     0.10900
C2180       C  0.00805204  0.83989873  0.64157669    -0.06200
C2181       C  0.00738473  0.87160659  0.65239480    -0.17500
C2182       C  0.98571746  0.87879279  0.67203524     0.10900
S2183       S  0.48288712  0.77413918  0.63747032    -0.32400
S2184       S  0.98703065  0.92018455  0.68429832    -0.32400
H2185       H  0.95432879  0.92724516  0.67706441     0.28900
H2186       H  0.48621951  0.78533825  0.61285092     0.28900
H2187       H  0.94957298  0.80202199  0.67744183     0.19500
H2188       H  0.02366991  0.89103817  0.64530945     0.19500
C2189       C  0.96263904  0.86922756  0.78989019    -0.06300
C2190       C  0.96401239  0.89986360  0.80234970    -0.17400
C2191       C  0.98415078  0.90431785  0.82303996     0.10900
C2192       C  0.00392147  0.87774528  0.83158015    -0.06200
C2193       C  0.00333530  0.84742650  0.81889782    -0.17500
C2194       C  0.98348577  0.84302498  0.79803327     0.10900
S2195       S  0.98240234  0.94400682  0.83824304    -0.32400
S2196       S  0.98707094  0.80390338  0.78229414    -0.32400
H2197       H  0.98764029  0.81857206  0.75853019     0.28900
H2198       H  0.98744679  0.93150329  0.86230562     0.28900
H2199       H  0.94837621  0.92036534  0.79649529     0.19500
H2200       H  0.51886273  0.82705833  0.82519263     0.19500
C2201       C  0.82090998  0.86263414  0.78604521    -0.06300
C2202       C  0.80625886  0.83130730  0.79115660    -0.17400
C2203       C  0.78279913  0.82670719  0.80994799     0.10900
C2204       C  0.77138914  0.85443973  0.82331327    -0.06200
C2205       C  0.78416466  0.88621253  0.81708873    -0.17500
C2206       C  0.80930224  0.89048194  0.79929639     0.10900
S2207       S  0.77111055  0.78425970  0.81723531    -0.32400
S2208       S  0.82686413  0.93155841  0.79590112    -0.32400
H2209       H  0.85958359  0.92046061  0.79939416     0.28900
H2210       H  0.77374396  0.78784089  0.84297076     0.28900
H2211       H  0.81431496  0.80946508  0.78125629     0.19500
H2212       H  0.77580656  0.90775607  0.82722690     0.19500
C2213       C  0.77946814  0.86298683  0.64328962    -0.06300
C2214       C  0.77664374  0.83860796  0.66200693    -0.17400
C2215       C  0.79942006  0.83697568  0.68142325     0.10900
C2216       C  0.82633010  0.85956338  0.68175642    -0.06200
C2217       C  0.82902031  0.88389341  0.66289922    -0.17500
C2218       C  0.80609285  0.88573439  0.64367901     0.10900
S2219       S  0.79148045  0.80709183  0.70589188    -0.32400
S2220       S  0.81233910  0.91751113  0.62020646    -0.32400
H2221       H  0.79803251  0.89989275  0.60067314     0.28900
H2222       H  0.80024851  0.82869730  0.72507639     0.28900
H2223       H  0.75596313  0.82133163  0.66184165     0.19500
H2224       H  0.84947881  0.90143713  0.66293141     0.19500
C2225       C  0.51572889  0.68066725  0.02734050    -0.06300
C2226       C  0.01315303  0.64689520  0.02111821    -0.17400
C2227       C  0.00719584  0.62216732  0.03922885     0.10900
C2228       C  0.50264101  0.63133531  0.06423951    -0.06200
C2229       C  0.50622918  0.66517452  0.07032548    -0.17500
C2230       C  0.51377825  0.68950129  0.05244615     0.10900
S2231       S  0.00635367  0.57957803  0.02910991    -0.32400
S2232       S  0.52043123  0.73147044  0.06286804    -0.32400
H2233       H  0.54032414  0.74174617  0.04277099     0.28900
H2234       H  0.02201463  0.56647659  0.05024316     0.28900
H2235       H  0.01483633  0.63986969  0.00188950     0.19500
H2236       H  0.50327106  0.67286205  0.08932245     0.19500
C2237       C  0.51561236  0.78265177  0.95086690    -0.06300
C2238       C  0.52977715  0.81314101  0.95753364    -0.17400
C2239       C  0.53568229  0.83834693  0.93990102     0.10900
C2240       C  0.53035794  0.83181274  0.91452597    -0.06200
C2241       C  0.51560819  0.80122081  0.90820750    -0.17500
C2242       C  0.50629254  0.77775077  0.92615509     0.10900
S2243       S  0.54799669  0.87848699  0.95135222    -0.32400
S2244       S  0.48179818  0.74284165  0.91616406    -0.32400
H2245       H  0.46799867  0.73449672  0.93925179     0.28900
H2246       H  0.53039529  0.89695516  0.93349225     0.28900
H2247       H  0.53595433  0.81741444  0.97670126     0.19500
H2248       H  0.51077780  0.79544300  0.88907993     0.19500
C2249       C  0.70144256  0.72239802  0.51487762    -0.06300
C2250       C  0.69301360  0.69457031  0.52955399    -0.17400
C2251       C  0.66742683  0.69626034  0.54708686     0.10900
C2252       C  0.65203800  0.72735166  0.55172008    -0.06200
C2253       C  0.65776009  0.75367078  0.53473517    -0.17500
C2254       C  0.68087380  0.75071000  0.51561687     0.10900
S2255       S  0.65520816  0.65783581  0.56225618    -0.32400
S2256       S  0.68376139  0.78424064  0.49326271    -0.32400
H2257       H  0.69963447  0.76550048  0.47492011     0.28900
H2258       H  0.62282285  0.66831409  0.56783761     0.28900
H2259       H  0.70723092  0.67182170  0.52801339     0.19500
H2260       H  0.64544694  0.77738867  0.53684096     0.19500
C2261       C  0.60976735  0.95753546  0.56767684    -0.06300
C2262       C  0.57564810  0.95960006  0.57283237    -0.17400
C2263       C  0.55280781  0.96847277  0.55460036     0.10900
C2264       C  0.56373735  0.97364100  0.53003344    -0.06200
C2265       C  0.59787037  0.97281253  0.52490012    -0.17500
C2266       C  0.62098794  0.96543691  0.54347306     0.10900
S2267       S  0.51008183  0.97264288  0.56394577    -0.32400
S2268       S  0.66424204  0.46736439  0.53513884    -0.32400
H2269       H  0.67504506  0.47930321  0.55805362     0.28900
H2270       H  0.50036471  0.99352563  0.54425210     0.28900
H2271       H  0.56663170  0.95435282  0.59137639     0.19500
H2272       H  0.60649784  0.47716904  0.50613766     0.19500
C2273       C  0.64773775  0.66818371  0.68478233    -0.06300
C2274       C  0.61525375  0.67456768  0.67652855    -0.17400
C2275       C  0.60885244  0.69416934  0.65566095     0.10900
C2276       C  0.63530149  0.70969117  0.64278939    -0.06200
C2277       C  0.66782304  0.70415539  0.65105734    -0.17500
C2278       C  0.67436953  0.68336972  0.67159423     0.10900
S2279       S  0.56629441  0.69639815  0.64563084    -0.32400
S2280       S  0.71708605  0.67742442  0.67975282    -0.32400
H2281       H  0.71582382  0.64288628  0.67572511     0.28900
H2282       H  0.57363369  0.69421116  0.62027149     0.28900
H2283       H  0.59421770  0.66310457  0.68580306     0.19500
H2284       H  0.68834343  0.71569829  0.64119119     0.19500
C2285       C  0.65049187  0.53096508  0.68868569    -0.06300
C2286       C  0.62236194  0.51049881  0.68608897    -0.17400
C2287       C  0.62108460  0.48573226  0.66802178     0.10900
C2288       C  0.64864312  0.98098580  0.65231343    -0.06200
C2289       C  0.67668132  0.50113736  0.65496492    -0.17500
C2290       C  0.67762697  0.52648417  0.67230897     0.10900
S2291       S  0.58377109  0.96106043  0.66599544    -0.32400
S2292       S  0.71311811  0.55382663  0.67078717    -0.32400
H2293       H  0.69404679  0.58307185  0.67205854     0.28900
H2294       H  0.59856554  0.93290901  0.65545956     0.28900
H2295       H  0.60129846  0.51359038  0.69831407     0.19500
H2296       H  0.69742380  0.49829721  0.64236564     0.19500
C2297       C  0.61836037  0.75153860  0.91650234    -0.06300
C2298       C  0.59097539  0.73023428  0.91248922    -0.17400
C2299       C  0.56931173  0.72060492  0.93147406     0.10900
C2300       C  0.57094221  0.73642869  0.95445700    -0.06200
C2301       C  0.59769107  0.75795013  0.95892896    -0.17500
C2302       C  0.62235041  0.76406728  0.94083753     0.10900
S2303       S  0.54076595  0.68712482  0.92525650    -0.32400
S2304       S  0.65889425  0.78578927  0.95091101    -0.32400
H2305       H  0.68092822  0.76710266  0.93644158     0.28900
H2306       H  0.53817969  0.67521847  0.94967573     0.28900
H2307       H  0.58622877  0.72018111  0.89442155     0.19500
H2308       H  0.59972996  0.76950568  0.97683817     0.19500
C2309       C  0.66000643  0.67194430  0.79378767    -0.06300
C2310       C  0.63046956  0.68368600  0.80445399    -0.17400
C2311       C  0.63072381  0.70627088  0.82393548     0.10900
C2312       C  0.66123213  0.71656581  0.83410513    -0.06200
C2313       C  0.69075121  0.70519052  0.82349479    -0.17500
C2314       C  0.69061209  0.68383826  0.80327438     0.10900
S2315       S  0.59119893  0.72196698  0.83420249    -0.32400
S2316       S  0.73061832  0.67356407  0.79064725    -0.32400
H2317       H  0.72225825  0.68456348  0.76667618     0.28900
H2318       H  0.60255507  0.75437225  0.83908432     0.28900
H2319       H  0.60674979  0.67563662  0.79737205     0.19500
H2320       H  0.71428018  0.71336770  0.83088116     0.19500
C2321       C  0.64620621  0.98746029  0.83689701    -0.06300
C2322       C  0.67516246  0.48727153  0.82242582    -0.17400
C2323       C  0.67907497  0.50936178  0.80220503     0.10900
C2324       C  0.65380718  0.53276103  0.79668843    -0.06200
C2325       C  0.62532247  0.53308043  0.81175757    -0.17500
C2326       C  0.62138143  0.51111545  0.83167569     0.10900
S2327       S  0.71586336  0.50510706  0.78360532    -0.32400
S2328       S  0.58397874  0.51483656  0.84987145    -0.32400
H2329       H  0.59863252  0.00698088  0.87271125     0.28900
H2330       H  0.69886308  0.50709353  0.76099689     0.28900
H2331       H  0.69429070  0.96913316  0.82641047     0.19500
H2332       H  0.60583639  0.55103152  0.80826808     0.19500
C2333       C  0.77128746  0.92658842  0.94847252    -0.06300
C2334       C  0.76748438  0.89238966  0.95356076    -0.17400
C2335       C  0.75897419  0.87012449  0.93486525     0.10900
C2336       C  0.75301531  0.88256255  0.91072223    -0.06200
C2337       C  0.75798231  0.91671258  0.90573757    -0.17500
C2338       C  0.76817084  0.93845037  0.92401985     0.10900
S2339       S  0.75678414  0.82648643  0.94299699    -0.32400
S2340       S  0.77647020  0.98106472  0.91496248    -0.32400
H2341       H  0.79838780  0.98803808  0.93433234     0.28900
H2342       H  0.76799166  0.81504379  0.91998896     0.28900
H2343       H  0.77028075  0.88318369  0.97234426     0.19500
H2344       H  0.75404462  0.92663523  0.88726511     0.19500
C2345       C  0.78238363  0.51875655  0.02906426    -0.06300
C2346       C  0.78851151  0.50593431  0.05285626    -0.17400
C2347       C  0.79712794  0.52684917  0.07226816     0.10900
C2348       C  0.79786855  0.56175412  0.06833830    -0.06200
C2349       C  0.79105282  0.57463214  0.04467803    -0.17500
C2350       C  0.78390222  0.55358961  0.02497659     0.10900
S2351       S  0.80847074  0.50733665  0.10121396    -0.32400
S2352       S  0.77819613  0.57271568  0.99499801    -0.32400
H2353       H  0.79371591  0.54740500  0.98153017     0.28900
H2354       H  0.83148029  0.53194406  0.10795340     0.28900
H2355       H  0.78829571  0.47920112  0.05597517     0.19500
H2356       H  0.79132888  0.60135143  0.04151264     0.19500
C2357       C  0.66647625  0.95558666  0.92453210    -0.06300
C2358       C  0.67747756  0.98813264  0.92966624    -0.17400
C2359       C  0.70165617  0.99421441  0.94755936     0.10900
C2360       C  0.71401083  0.96743475  0.96199753    -0.06200
C2361       C  0.69883877  0.93604459  0.95976442    -0.17500
C2362       C  0.67654186  0.92940733  0.94064476     0.10900
S2363       S  0.71708881  0.53628433  0.94956761    -0.32400
S2364       S  0.66524361  0.88638855  0.93649347    -0.32400
H2365       H  0.66961712  0.88725292  0.91071892     0.28900
H2366       H  0.75050667  0.52754353  0.95225102     0.28900
H2367       H  0.66889689  0.50888041  0.91842779     0.19500
H2368       H  0.70709960  0.91559232  0.97142624     0.19500
C2369       C  0.83892306  0.97741553  0.01492065    -0.06300
C2370       C  0.85407110  0.50875949  0.01664769    -0.17400
C2371       C  0.87551606  0.51597799  0.03607424     0.10900
C2372       C  0.88559208  0.99018989  0.05255886    -0.06200
C2373       C  0.87484878  0.95743218  0.04774955    -0.17500
C2374       C  0.85076578  0.95096824  0.02978779     0.10900
S2375       S  0.88418621  0.55940387  0.04064056    -0.32400
S2376       S  0.83277605  0.90980919  0.02799363    -0.32400
H2377       H  0.85481019  0.89385757  0.04432578     0.28900
H2378       H  0.87667400  0.55838722  0.06604347     0.28900
H2379       H  0.84562670  0.52895238  0.00481406     0.19500
H2380       H  0.88340501  0.93715509  0.05941568     0.19500
C2381       C  0.91027406  0.70727905  0.05813341    -0.06300
C2382       C  0.91973327  0.74049647  0.05286361    -0.17400
C2383       C  0.94349724  0.74827048  0.03464926     0.10900
C2384       C  0.95644584  0.72261205  0.01975078    -0.06200
C2385       C  0.94283798  0.69053987  0.02234973    -0.17500
C2386       C  0.92209644  0.68211979  0.04223128     0.10900
S2387       S  0.95747613  0.79096405  0.03271719    -0.32400
S2388       S  0.91611356  0.63829501  0.04795923    -0.32400
H2389       H  0.92249495  0.64014696  0.07344020     0.28900
H2390       H  0.99101551  0.78366976  0.02847958     0.28900
H2391       H  0.91016337  0.76048848  0.06406534     0.19500
H2392       H  0.95137840  0.67093343  0.01035036     0.19500
C2393       C  0.87782356  0.71860591  0.42834229    -0.06300
C2394       C  0.87268620  0.69189115  0.44510356    -0.17400
C2395       C  0.85074757  0.69454785  0.46506346     0.10900
C2396       C  0.83061658  0.72309183  0.46706365    -0.06200
C2397       C  0.83844114  0.75114879  0.45243022    -0.17500
C2398       C  0.86288141  0.74967041  0.43394445     0.10900
S2399       S  0.84854240  0.66022381  0.48679606    -0.32400
S2400       S  0.87440739  0.78846898  0.41901872    -0.32400
H2401       H  0.90682943  0.77844345  0.41310968     0.28900
H2402       H  0.83338530  0.67827257  0.50584349     0.28900
H2403       H  0.88465741  0.66814900  0.44226268     0.19500
H2404       H  0.82451479  0.77395664  0.45472364     0.19500
C2405       C  0.89106040  0.91677148  0.18178532    -0.06300
C2406       C  0.88756356  0.95114310  0.18547198    -0.17400
C2407       C  0.89170522  0.97415146  0.16583949     0.10900
C2408       C  0.90053600  0.96270097  0.14204541    -0.06200
C2409       C  0.90312706  0.92812283  0.13843130    -0.17500
C2410       C  0.89837050  0.90518330  0.15793549     0.10900
S2411       S  0.88448482  0.01750429  0.17223375    -0.32400
S2412       S  0.90207571  0.86102169  0.15240213    -0.32400
H2413       H  0.90884793  0.86351882  0.12693274     0.28900
H2414       H  0.87259260  0.02580131  0.14856283     0.28900
H2415       H  0.88173717  0.96011617  0.20377758     0.19500
H2416       H  0.90971963  0.91909874  0.12030388     0.19500
C2417       C  0.89049755  0.77830755  0.18566000    -0.06300
C2418       C  0.85927824  0.76915970  0.17636844    -0.17400
C2419       C  0.85590843  0.74709860  0.15684755     0.10900
C2420       C  0.88427191  0.73201559  0.14655687    -0.06200
C2421       C  0.91555144  0.74025778  0.15600132    -0.17500
C2422       C  0.91905080  0.76338087  0.17511973     0.10900
S2423       S  0.81461543  0.74104698  0.14501920    -0.32400
S2424       S  0.96057770  0.77265178  0.18482532    -0.32400
H2425       H  0.95799003  0.80656224  0.17816559     0.28900
H2426       H  0.82419215  0.74094955  0.11999958     0.28900
H2427       H  0.83691595  0.78021727  0.18370464     0.19500
H2428       H  0.93749280  0.72898682  0.14812462     0.19500
C2429       C  0.89801601  0.74279308  0.33816132    -0.06300
C2430       C  0.86917382  0.74121207  0.32382097    -0.17400
C2431       C  0.86576826  0.76076219  0.30216190     0.10900
C2432       C  0.89148050  0.78307296  0.29486858    -0.06200
C2433       C  0.92011315  0.78447027  0.30955408    -0.17500
C2434       C  0.92350580  0.76504489  0.33096675     0.10900
S2435       S  0.82889926  0.75470669  0.28417517    -0.32400
S2436       S  0.96104008  0.77020740  0.34854290    -0.32400
H2437       H  0.94631034  0.76541966  0.37190925     0.28900
H2438       H  0.84576575  0.75479529  0.26135923     0.28900
H2439       H  0.84963602  0.72395254  0.32913480     0.19500
H2440       H  0.94000385  0.80154585  0.30469826     0.19500
C2441       C  0.92780383  0.00136706  0.40970980    -0.06300
C2442       C  0.91727822  0.50634424  0.43421970    -0.17400
C2443       C  0.93770045  0.49830725  0.45436497     0.10900
C2444       C  0.96887596  0.98339544  0.45020451    -0.06200
C2445       C  0.97863301  0.97683171  0.42593001    -0.17500
C2446       C  0.95980504  0.98774136  0.40579604     0.10900
S2447       S  0.92277800  0.50838081  0.48482969    -0.32400
S2448       S  0.97999412  0.98705215  0.37599423    -0.32400
H2449       H  0.96404368  0.01576379  0.36686318     0.28900
H2450       H  0.94201427  0.48521174  0.49801795     0.28900
H2451       H  0.89291313  0.51647577  0.43780204     0.19500
H2452       H  0.00244412  0.96545927  0.42256610     0.19500
C2453       C  0.88149650  0.96660635  0.32900548    -0.06300
C2454       C  0.85717838  0.94188711  0.32733324    -0.17400
C2455       C  0.85873533  0.91770825  0.30899675     0.10900
C2456       C  0.88476423  0.91869349  0.29127403    -0.06200
C2457       C  0.90905025  0.94364668  0.29299081    -0.17500
C2458       C  0.90755397  0.96769774  0.31148747     0.10900
S2459       S  0.82799362  0.88505674  0.31046580    -0.32400
S2460       S  0.93952588  0.99920144  0.31164615    -0.32400
H2461       H  0.92033347  0.52438173  0.32242643     0.28900
H2462       H  0.85071815  0.85930368  0.30590194     0.28900
H2463       H  0.83750823  0.94068091  0.34101916     0.19500
H2464       H  0.92902573  0.94481617  0.27956154     0.19500
loop_ 
_geom_bond_atom_site_label_1 
_geom_bond_atom_site_label_2 
_geom_bond_distance 
_geom_bond_site_symmetry_2 
_ccdc_geom_bond_type 
C1            C6   1.391       .  A
C1          C618   1.397       .  A
C1          C605   1.476       .  S
C2            C3   1.417       .  A
C2          C617   1.397   1_545  A
C2            H7   1.077       .  S
C3            C4   1.424       .  A
C3          C212   1.521       .  S
C4            C5   1.417       .  A
C4            H8   1.079       .  S
C5          C622   1.401   1_545  A
C5         C1209   1.500       .  S
C6          C621   1.401       .  A
C6            H9   1.083       .  S
O10         Ni18   1.931       .  S
O10          C20   1.285       .  A
O11         Ni18   1.932       .  S
O11          C21   1.283       .  A
O12         Ni18   1.916       .  S
O12          C22   1.279       .  A
O13         Ni18   1.911       .  S
O13          C23   1.281       .  A
O14         Ni19   1.937       .  S
O14          C23   1.285       .  A
O15         Ni19   1.937       .  S
O15          C22   1.284       .  A
O16         Ni19   1.907       .  S
O16          C21   1.281       .  A
O17         Ni19   1.904       .  S
O17          C20   1.278       .  A
Ni18        Ni19   2.383       .  S
C20         C608   1.483       .  S
C21         C569   1.498       .  S
C22         C557   1.480       .  S
C23         C584   1.496       .  S
C24          C25   1.400       .  A
C24          C29   1.399       .  A
C24         C581   1.485       .  S
C25          C26   1.411       .  A
C25          H30   1.080       .  S
C26          C27   1.414       .  A
C26         C203   1.509       .  S
C27          C28   1.413       .  A
C27          H31   1.080       .  S
C28          C29   1.410       .  A
C28         C545   1.505       .  S
C29          H32   1.081       .  S
C33          C34   1.399       .  A
C33          C38   1.402       .  A
C33         C572   1.487       .  S
C34          C35   1.407       .  A
C34          H39   1.083       .  S
C35          C36   1.413       .  A
C35         C533   1.503       .  S
C36          C37   1.416       .  A
C36          H40   1.080       .  S
C37          C38   1.411       .  A
C37         C180   1.510       .  S
C38          H41   1.080       .  S
C42          C43   1.397       .  A
C42         C663   1.407       .  A
C42         C560   1.497       .  S
C43         C660   1.405       .  A
C43          H48   1.083       .  S
C44          C45   1.410   1_565  A
C44         C659   1.405       .  A
C44        C1140   1.501       .  S
C45          C46   1.416       .  A
C45          H49   1.079       .  S
C46          C47   1.421       .  A
C46         C169   1.519       .  S
C47         C658   1.407   1_545  A
C47          H50   1.077       .  S
C51          C56   1.408   1_554  A
C51         C668   1.420       .  A
C51         C497   1.486   1_565  S
C52          C53   1.399   1_554  A
C52         C667   1.420       .  A
C52         C521   1.492       .  S
C53          C54   1.401       .  A
C53          H58   1.084       .  S
C54          C55   1.420       .  A
C54         C485   1.478       .  S
C55         C672   1.406       .  A
C55         C512   1.499       .  S
C56         C671   1.406       .  A
C56          H57   1.084   1_566  S
C59          C60   1.394       .  A
C59          C64   1.399       .  A
C59         C473   1.479       .  S
C60          C61   1.407       .  A
C60          H65   1.084       .  S
C61          C62   1.414       .  A
C61         C509   1.501       .  S
C62          C63   1.420       .  A
C62          H66   1.080       .  S
C63          C64   1.411       .  A
C63         C142   1.512       .  S
C64          H67   1.079       .  S
C68          C69   1.395       .  A
C68          C73   1.394       .  A
C68         C464   1.486       .  S
C69          C70   1.411       .  A
C69          H74   1.082       .  S
C70          C71   1.423       .  A
C70         C449   1.518       .  S
C71          C72   1.424       .  A
C71          H75   1.079       .  S
C72          C73   1.409       .  A
C72         C135   1.514       .  S
C73          H76   1.078       .  S
O77         Ni85   1.929       .  S
O77          C87   1.285       .  A
O78         Ni85   1.929       .  S
O78          C88   1.284       .  A
O79         Ni85   1.899       .  S
O79          C89   1.279       .  A
O80         Ni85   1.897       .  S
O80          C90   1.278       .  A
O81         Ni86   1.943       .  S
O81          C90   1.286       .  A
O82         Ni86   1.937       .  S
O82          C89   1.285       .  A
O83         Ni86   1.904       .  S
O83          C88   1.278       .  A
O84         Ni86   1.906       .  S
O84          C87   1.276       .  A
Ni85        Ni86   2.378       .  S
C87         C461   1.495       .  S
C88         C437   1.487       .  S
C89         C476   1.490       .  S
C90         C425   1.499       .  S
C91          C92   1.399       .  A
C91          C96   1.392       .  A
C91         C440   1.477       .  S
C92          C93   1.416       .  A
C92          H97   1.079       .  S
C93          C94   1.419       .  A
C93         C151   1.516       .  S
C94          C95   1.415       .  A
C94          H98   1.079       .  S
C95          C96   1.400       .  A
C95         C413   1.491       .  S
C96          H99   1.084       .  S
C100        C101   1.403       .  A
C100        C105   1.397       .  A
C100        C428   1.488       .  S
C101        C102   1.414       .  A
C101        H106   1.078       .  S
C102        C103   1.416       .  A
C102        C162   1.516       .  S
C103        C104   1.410       .  A
C103        H107   1.077       .  S
C104        C105   1.405       .  A
C104        C404   1.499       .  S
C105        H108   1.081       .  S
C109        C114   1.409   1_554  A
C109       C1342   1.425   1_455  A
C109        C377   1.491       .  S
C110        C111   1.405   1_554  A
C110       C1341   1.425       .  A
C110        C536   1.499       .  S
C111       C1344   1.404       .  A
C111        H116   1.084       .  S
C112        C113   1.414       .  A
C112       C1343   1.404   1_455  A
C112        C389   1.479       .  S
C113        C114   1.405       .  A
C113        C452   1.494       .  S
C114        H115   1.084       .  S
O117       Ni125   1.932       .  S
O117        C127   1.285       .  A
O118       Ni125   1.931       .  S
O118        C128   1.285       .  A
O119       Ni125   1.893       .  S
O119        C129   1.277       .  A
O120       Ni125   1.896       .  S
O120        C130   1.277       .  A
O121       Ni126   1.943       .  S
O121        C130   1.286       .  A
O122       Ni126   1.945       .  S
O122        C129   1.287       .  A
O123       Ni126   1.906       .  S
O123        C128   1.278       .  A
O124       Ni126   1.899       .  S
O124        C127   1.277       .  A
Ni125      Ni126   2.381       .  S
C127        C368   1.479       .  S
C128        C341   1.491       .  S
C129        C353   1.496       .  S
C130        C329   1.495       .  S
C131        C132   1.392       .  A
C131        C136   1.407       .  A
C131        C356   1.493       .  S
C132        C133   1.396       .  A
C132        H137   1.084       .  S
C133        C134   1.409       .  A
C133        C488   1.484       .  S
C134        C135   1.414       .  A
C134        H138   1.079       .  S
C135        C136   1.422       .  A
C136        H139   1.079       .  S
C140        C141   1.402       .  A
C140        C145   1.391       .  A
C140       C1576   1.482       .  S
C141        C142   1.419       .  A
C141        H146   1.079       .  S
C142        C143   1.416       .  A
C143        C144   1.411       .  A
C143        H147   1.080       .  S
C144        C145   1.401       .  A
C144        C392   1.495       .  S
C145        H148   1.083   1_455  S
C149        C150   1.399       .  A
C149        C154   1.389       .  A
C149        C365   1.474       .  S
C150        C151   1.418       .  A
C150        H155   1.079       .  S
C151        C152   1.421       .  A
C152        C153   1.413       .  A
C152        H156   1.081       .  S
C153        C154   1.396       .  A
C153        C317   1.481       .  S
C154        H157   1.085       .  S
C158        C159   1.396       .  A
C158        C163   1.406       .  A
C158       C1564   1.488       .  S
C159        C160   1.403       .  A
C159        H164   1.084       .  S
C160        C161   1.406       .  A
C160        C308   1.494       .  S
C161        C162   1.417       .  A
C161        H165   1.075       .  S
C162        C163   1.416       .  A
C163        H166   1.078       .  S
C167        C172   1.393       .  A
C167       C1400   1.402   1_455  A
C167        C293   1.480       .  S
C168        C169   1.414       .  A
C168       C1399   1.402       .  A
C168        H173   1.078       .  S
C169        C170   1.423       .  A
C170        C171   1.414       .  A
C170        H174   1.079       .  S
C171       C1404   1.400       .  A
C171       C1612   1.498       .  S
C172       C1403   1.400   1_455  A
C172        H175   1.084       .  S
C176        C177   1.391       .  A
C176        C181   1.402       .  A
C176        C281   1.474       .  S
C177        C178   1.397       .  A
C177        H182   1.084       .  S
C178        C179   1.410       .  A
C178        C500   1.482       .  S
C179        C180   1.416       .  A
C179        H183   1.081       .  S
C180        C181   1.416       .  A
C181        H184   1.081       .  S
O185       Ni193   1.935       .  S
O185        C195   1.285       .  A
O186       Ni193   1.934       .  S
O186        C196   1.286       .  A
O187       Ni193   1.898       .  S
O187        C197   1.275       .  A
O188       Ni193   1.890       .  S
O188        C198   1.275       .  A
O189       Ni194   1.941       .  S
O189        C198   1.286       .  A
O190       Ni194   1.938       .  S
O190        C197   1.287       .  A
O191       Ni194   1.898       .  S
O191        C196   1.276       .  A
O192       Ni194   1.895       .  S
O192        C195   1.275       .  A
Ni193      Ni194   2.386       .  S
C195        C272   1.469       .  S
C196        C296   1.484       .  S
C197        C260   1.492       .  S
C198        C284   1.477       .  S
C199        C200   1.391       .  A
C199       C1436   1.397   1_455  A
C199        C257   1.480       .  S
C200       C1433   1.407   1_455  A
C200        H205   1.082       .  S
C201        C202   1.415       .  A
C201       C1432   1.407       .  A
C201       C1477   1.507       .  S
C202        C203   1.418       .  A
C202        H206   1.079       .  S
C203        C204   1.413       .  A
C204       C1431   1.397       .  A
C204        H207   1.079       .  S
C208        C209   1.387       .  A
C208        C213   1.402       .  A
C208        C269   1.478       .  S
C209        C210   1.392       .  A
C209        H214   1.085       .  S
C210        C211   1.410       .  A
C210        C233   1.481       .  S
C211        C212   1.422       .  A
C211        H215   1.079       .  S
C212        C213   1.423       .  A
C213        H216   1.078       .  S
C217        C222   1.401       .  A
C217       C2066   1.414   1_445  A
C217        C248   1.480       .  S
C218        C219   1.404       .  A
C218       C2065   1.414       .  A
C218        C596   1.489       .  S
C219       C1452   1.408       .  A
C219        H224   1.083       .  S
C220        C221   1.423       .  A
C220       C1451   1.408   1_455  A
C220        C305   1.493       .  S
C221        C838   1.402       .  A
C221        C416   1.489       .  S
C222        C837   1.402   1_545  A
C222        H223   1.084       .  S
C225        C226   1.422       .  A
C225        C230   1.403       .  A
C225        C236   1.487       .  S
C226        C227   1.404       .  A
C226        C548   1.494       .  S
C227        C228   1.407       .  A
C227        H232   1.084       .  S
C228        C229   1.421       .  A
C228        C320   1.492       .  S
C229        C230   1.402       .  A
C229        C401   1.489       .  S
C230        H231   1.084       .  S
C233        C234   1.403       .  A
C233        C238   1.414       .  A
C234        C235   1.404       .  A
C234        H243   1.084       .  S
C235        C236   1.417       .  A
C235        S239   1.806       .  S
C236        C237   1.402       .  A
C237        C238   1.393       .  A
C237        H244   1.084       .  S
C238        S240   1.805       .  S
S239        H242   1.404       .  S
S240        H241   1.407       .  S
C245        C250   1.426   1_455  A
C245       C1478   1.413       .  A
C245       C1433   1.507   1_455  S
C246        C247   1.390       .  A
C246       C1477   1.413       .  A
C246        H255   1.081       .  S
C247       C1480   1.405       .  A
C247        S867   1.807       .  S
C248        C249   1.401   1_455  A
C248       C1479   1.405       .  A
C249        C250   1.406       .  A
C249        H256   1.084       .  S
C250        S252   1.803       .  S
S251        C863   1.807       .  S
S251        H254   1.404       .  S
S252        H253   1.407       .  S
C257        C258   1.396       .  A
C257        C262   1.415       .  A
C258        C259   1.403       .  A
C258        H267   1.083       .  S
C259        C260   1.425       .  A
C259        S263   1.811       .  S
C260        C261   1.405       .  A
C261        C262   1.400       .  A
C261        H268   1.083       .  S
C262        S264   1.805       .  S
S263        H266   1.407       .  S
S264        H265   1.406   1_455  S
C269        C270   1.402       .  A
C269        C274   1.413       .  A
C270        C271   1.397       .  A
C270        H279   1.083       .  S
C271        C272   1.409       .  A
C271        S275   1.810       .  S
C272        C273   1.403       .  A
C273        C274   1.404       .  A
C273        H280   1.084       .  S
C274        S276   1.803       .  S
S275        H278   1.407       .  S
S276        H277   1.406       .  S
C281        C282   1.398       .  A
C281        C286   1.414       .  A
C282        C283   1.399       .  A
C282        H291   1.083       .  S
C283        C284   1.416       .  A
C283        S287   1.811       .  S
C284        C285   1.403       .  A
C285        C286   1.403       .  A
C285        H292   1.084       .  S
C286        S288   1.804       .  S
S287        H290   1.407       .  S
S288        H289   1.405       .  S
C293        C294   1.397       .  A
C293        C298   1.416       .  A
C294        C295   1.394       .  A
C294        H303   1.084       .  S
C295        C296   1.421       .  A
C295        S299   1.803       .  S
C296        C297   1.405       .  A
C297        C298   1.403       .  A
C297        H304   1.084       .  S
C298       S1532   1.805       .  S
S299        H302   1.408       .  S
S300       C1530   1.805       .  S
S300        H301   1.406       .  S
C305        C306   1.405       .  A
C305        C310   1.411   1_455  A
C306        C307   1.399       .  A
C306        H315   1.083       .  S
C307        C308   1.418       .  A
C307        S311   1.804       .  S
C308        C309   1.409       .  A
C309        C310   1.403   1_455  A
C309       H1548   1.082   1_455  S
C310       S1544   1.808       .  S
S311        H314   1.407       .  S
S312       C1542   1.808       .  S
S312        H313   1.406       .  S
H316       C1541   1.082       .  S
C317        C318   1.403       .  A
C317        C322   1.413       .  A
C318        C319   1.403       .  A
C318        H327   1.084       .  S
C319        C320   1.417       .  A
C319        S323   1.806       .  S
C320        C321   1.405       .  A
C321        C322   1.398       .  A
C321        H328   1.084       .  S
C322        S324   1.804       .  S
S323        H326   1.404       .  S
S324        H325   1.407       .  S
C329        C330   1.410       .  A
C329        C334   1.417       .  A
C330        C331   1.395       .  A
C330        H339   1.083       .  S
C331        C332   1.411       .  A
C331       S1567   1.806       .  S
C332        C333   1.408       .  A
C332       C1390   1.488       .  S
C333        C334   1.407       .  A
C333        H340   1.084       .  S
C334        S336   1.798       .  S
S335       C1563   1.806       .  S
S335        H338   1.407       .  S
S336        H337   1.407       .  S
C341        C342   1.411       .  A
C341        C346   1.416       .  A
C342        C343   1.400       .  A
C342        H351   1.083       .  S
C343        C344   1.408       .  A
C343        S347   1.804       .  S
C344        C345   1.405       .  A
C344       C1372   1.482       .  S
C345        C346   1.401       .  A
C345       H1584   1.084       .  S
C346        S348   1.802       .  S
S347        H350   1.406       .  S
S348        H349   1.408       .  S
H352       C1577   1.084       .  S
C353        C354   1.412       .  A
C353        C358   1.416       .  A
C354        C355   1.397       .  A
C354        H363   1.083       .  S
C355        C356   1.412       .  A
C355        S359   1.805       .  S
C356        C357   1.411       .  A
C357        C358   1.404       .  A
C357        H364   1.084       .  S
C358        S360   1.800       .  S
S359        H362   1.407       .  S
S360        H361   1.408       .  S
C365        C366   1.403       .  A
C365        C370   1.409       .  A
C366        C367   1.401       .  A
C366        H375   1.084       .  S
C367        C368   1.414       .  A
C367        S371   1.802       .  S
C368        C369   1.407       .  A
C369        C370   1.397       .  A
C369        H376   1.084       .  S
C370        S372   1.805       .  S
S371        H374   1.407       .  S
S372        H373   1.405       .  S
C377        C382   1.411       .  A
C377       C1610   1.405       .  A
C378        C379   1.405       .  A
C378       C1609   1.405       .  A
C378        H387   1.084       .  S
C379       C1612   1.419       .  A
C379        S383   1.802       .  S
C380        C381   1.409       .  A
C380       C1611   1.419       .  A
C380       C1403   1.498   1_455  S
C381        C382   1.398       .  A
C381        H388   1.084       .  S
C382        S384   1.803       .  S
S383        H386   1.406       .  S
S384        H385   1.406       .  S
C389        C390   1.402       .  A
C389        C394   1.407       .  A
C390        C391   1.401       .  A
C390        H399   1.084       .  S
C391        C392   1.419       .  A
C391        S395   1.803       .  S
C392        C393   1.410       .  A
C393        C394   1.394       .  A
C393        H400   1.082       .  S
C394        S396   1.803   1_455  S
S395        H398   1.407       .  S
S396        H397   1.402       .  S
C401        C402   1.402       .  A
C401        C406   1.410       .  A
C402        C403   1.402       .  A
C402        H411   1.084       .  S
C403        C404   1.420       .  A
C403        S407   1.804       .  S
C404        C405   1.409       .  A
C405        C406   1.397       .  A
C405        H412   1.082       .  S
C406        S408   1.801       .  S
S407        H410   1.407       .  S
S408        H409   1.407       .  S
C413        C414   1.407       .  A
C413        C418   1.416       .  A
C414        C415   1.397       .  A
C414        H423   1.084       .  S
C415        C416   1.412       .  A
C415        S419   1.804       .  S
C416        C417   1.405       .  A
C417        C418   1.404       .  A
C417       H1040   1.084       .  S
C418       S1036   1.802       .  S
S419        H422   1.405       .  S
S420       C1034   1.802       .  S
S420        H421   1.406       .  S
H424       C1033   1.084       .  S
C425        C426   1.411       .  A
C425        C430   1.420       .  A
C426        C427   1.394       .  A
C426        H435   1.083       .  S
C427        C428   1.411       .  A
C427        S431   1.807       .  S
C428        C429   1.406       .  A
C429        C430   1.408       .  A
C429        H436   1.083       .  S
C430        S432   1.798       .  S
S431        H434   1.407       .  S
S432        H433   1.407       .  S
C437        C438   1.409       .  A
C437        C442   1.419       .  A
C438        C439   1.405   1_545  A
C438        H447   1.083       .  S
C439       C1056   1.412       .  A
C439       S1059   1.805       .  S
C440       C1055   1.412       .  A
C440       C1057   1.398       .  A
C441        C442   1.394       .  A
C441       C1056   1.398   1_545  A
C441        H448   1.085   1_545  S
C442        S444   1.804       .  S
S443       C1055   1.805       .  S
S443        H446   1.406       .  S
S444        H445   1.408       .  S
C449        C450   1.415       .  A
C449        C454   1.426       .  A
C450        C451   1.396       .  A
C450        H459   1.081       .  S
C451        C452   1.406       .  A
C451        S455   1.804       .  S
C452        C453   1.405       .  A
C453        C454   1.412       .  A
C453        H460   1.084       .  S
C454        S456   1.802       .  S
S455        H458   1.403       .  S
S456        H457   1.407       .  S
C461        C462   1.408       .  A
C461        C466   1.424       .  A
C462        C463   1.400       .  A
C462        H471   1.083       .  S
C463        C464   1.414       .  A
C463        S467   1.805       .  S
C464        C465   1.401       .  A
C465        C466   1.399       .  A
C465        H472   1.084       .  S
C466        S468   1.802       .  S
S467        H470   1.407       .  S
S468        H469   1.408       .  S
C473       C1090   1.404       .  A
C473       C1094   1.410       .  A
C474        C475   1.408   1_565  A
C474       C1089   1.404       .  A
C474       H1099   1.084       .  S
C475        C476   1.419       .  A
C475        S479   1.800       .  S
C476        C477   1.407       .  A
C477        C478   1.392       .  A
C477        H484   1.084       .  S
C478       C1089   1.410   1_545  A
C478        S480   1.807       .  S
S479        H482   1.407       .  S
S480       H1097   1.406       .  S
H481       S1096   1.406       .  S
H483       C1090   1.084       .  S
C485        C486   1.404       .  A
C485        C490   1.407       .  A
C486        C487   1.402       .  A
C486        H495   1.084       .  S
C487        C488   1.415       .  A
C487        S491   1.802       .  S
C488        C489   1.407       .  A
C489        C490   1.391       .  A
C489        H496   1.084       .  S
C490        S492   1.803       .  S
S491        H494   1.406       .  S
S492        H493   1.406       .  S
C497        C498   1.404       .  A
C497        C502   1.414       .  A
C498        C499   1.398       .  A
C498        H507   1.084   1_545  S
C499        C500   1.415       .  A
C499        S503   1.804       .  S
C500        C501   1.404       .  A
C501        C502   1.400       .  A
C501        H508   1.084       .  S
C502        S504   1.802   1_554  S
S503        H506   1.407       .  S
S504        H505   1.405       .  S
C509        C510   1.410       .  A
C509        C514   1.418       .  A
C510        C511   1.402       .  A
C510       H1135   1.084       .  S
C511        C512   1.414       .  A
C511       S1131   1.803       .  S
C512        C513   1.406       .  A
C513        C514   1.403       .  A
C513        H520   1.083       .  S
C514        S516   1.802       .  S
S515       C1127   1.803   1_545  S
S515        H518   1.403       .  S
S516        H517   1.405       .  S
H519       C1126   1.084   1_545  S
C521        C526   1.410       .  A
C521       C1138   1.402       .  A
C522        C523   1.398       .  A
C522       C1137   1.402   1_545  A
C522        H531   1.083       .  S
C523       C1140   1.419   1_545  A
C523        S527   1.797       .  S
C524        C525   1.411       .  A
C524       C1139   1.419       .  A
C524        C660   1.501       .  S
C525        C526   1.404       .  A
C525        H532   1.082       .  S
C526        S528   1.807       .  S
S527        H530   1.407       .  S
S528        H529   1.407       .  S
C533        C534   1.411       .  A
C533        C538   1.418       .  A
C534        C535   1.404       .  A
C534        H543   1.083       .  S
C535        C536   1.416       .  A
C535        S539   1.804       .  S
C536        C537   1.403       .  A
C537        C538   1.398       .  A
C537        H544   1.083       .  S
C538        S540   1.798       .  S
S539        H542   1.405       .  S
S540        H541   1.407       .  S
C545        C546   1.410       .  A
C545        C550   1.422       .  A
C546        C547   1.399       .  A
C546        H555   1.082       .  S
C547        C548   1.411       .  A
C547        S551   1.802       .  S
C548        C549   1.403       .  A
C549        C550   1.404       .  A
C549        H556   1.084       .  S
C550        S552   1.804       .  S
S551        H554   1.406       .  S
S552        H553   1.407       .  S
C557        C558   1.404       .  A
C557        C562   1.408       .  A
C558        C559   1.408       .  A
C558        H567   1.084       .  S
C559        C560   1.417       .  A
C559        S563   1.803       .  S
C560        C561   1.408       .  A
C561        C562   1.404       .  A
C561        H568   1.083       .  S
C562        S564   1.808       .  S
S563        H566   1.407       .  S
S564        H565   1.407       .  S
C569        C570   1.409       .  A
C569        C574   1.421       .  A
C570        C571   1.394       .  A
C570        H579   1.083       .  S
C571        C572   1.412       .  A
C571        S575   1.806       .  S
C572        C573   1.405       .  A
C573        C574   1.406       .  A
C573        H580   1.084       .  S
C574        S576   1.799       .  S
S575        H578   1.407       .  S
S576        H577   1.408       .  S
C581        C582   1.404       .  A
C581        C586   1.411       .  A
C582        C583   1.410       .  A
C582        H591   1.084       .  S
C583        C584   1.420       .  A
C583        S587   1.800       .  S
C584        C585   1.407       .  A
C585        C586   1.396       .  A
C585        H592   1.084       .  S
C586        S588   1.806       .  S
S587        H590   1.407       .  S
S588        H589   1.406       .  S
C593        C598   1.420       .  A
C593       C1210   1.408       .  A
C593        C621   1.500       .  S
C594        C595   1.405   1_545  A
C594       C1209   1.408       .  A
C594        H603   1.083       .  S
C595       C1212   1.413       .  A
C595        S599   1.804   1_565  S
C596        C597   1.399       .  A
C596       C1211   1.413       .  A
C597        C598   1.398       .  A
C597        H604   1.081       .  S
C598        S600   1.805       .  S
S599        H602   1.403   1_545  S
S600        H601   1.407       .  S
C605        C606   1.398       .  A
C605        C610   1.413       .  A
C606        C607   1.398       .  A
C606        H615   1.084       .  S
C607        C608   1.420       .  A
C607        S611   1.803       .  S
C608        C609   1.404       .  A
C609        C610   1.401       .  A
C609        H616   1.084       .  S
C610        S612   1.805       .  S
S611        H614   1.407       .  S
S612       H1229   1.405       .  S
H613       S1228   1.405   1_545  S
C617        C622   1.391       .  A
C617       C1221   1.476       .  S
C618        C619   1.417       .  A
C618        H623   1.077       .  S
C619        C620   1.424       .  A
C619        C828   1.521       .  S
C620        C621   1.417       .  A
C620        H624   1.079       .  S
C622        H625   1.083       .  S
O626       Ni634   1.931       .  S
O626        C636   1.285       .  A
O627       Ni634   1.932       .  S
O627        C637   1.283       .  A
O628       Ni634   1.916       .  S
O628        C638   1.279       .  A
O629       Ni634   1.911       .  S
O629        C639   1.281       .  A
O630       Ni635   1.937       .  S
O630        C639   1.285       .  A
O631       Ni635   1.937       .  S
O631        C638   1.284       .  A
O632       Ni635   1.907       .  S
O632        C637   1.281       .  A
O633       Ni635   1.904       .  S
O633        C636   1.278       .  A
Ni634      Ni635   2.383       .  S
C636       C1224   1.483       .  S
C637       C1185   1.498       .  S
C638       C1173   1.480       .  S
C639       C1200   1.496       .  S
C640        C641   1.400       .  A
C640        C645   1.399       .  A
C640       C1197   1.485       .  S
C641        C642   1.411       .  A
C641        H646   1.080       .  S
C642        C643   1.414       .  A
C642        C819   1.509       .  S
C643        C644   1.413       .  A
C643        H647   1.080       .  S
C644        C645   1.410       .  A
C644       C1161   1.505       .  S
C645        H648   1.081       .  S
C649        C650   1.399       .  A
C649        C654   1.402       .  A
C649       C1188   1.487       .  S
C650        C651   1.407       .  A
C650        H655   1.083       .  S
C651        C652   1.413       .  A
C651       C1149   1.502       .  S
C652        C653   1.416       .  A
C652        H656   1.080       .  S
C653        C654   1.411       .  A
C653        C796   1.510       .  S
C654        H657   1.080       .  S
C658        C659   1.397       .  A
C658       C1176   1.497       .  S
C659        H664   1.083       .  S
C660        C661   1.410       .  A
C661        C662   1.416       .  A
C661        H665   1.079       .  S
C662        C663   1.421       .  A
C662        C785   1.519       .  S
C663        H666   1.077       .  S
C667        C672   1.408   1_554  A
C667       C1113   1.486       .  S
C668        C669   1.399   1_554  A
C668       C1137   1.492       .  S
C669        C670   1.401       .  A
C669        H674   1.084       .  S
C670        C671   1.420       .  A
C670       C1101   1.478       .  S
C671       C1128   1.499       .  S
C672        H673   1.084   1_556  S
C675        C676   1.394       .  A
C675        C680   1.399       .  A
C675       C1089   1.479       .  S
C676        C677   1.407       .  A
C676        H681   1.084       .  S
C677        C678   1.414       .  A
C677       C1125   1.501       .  S
C678        C679   1.420       .  A
C678        H682   1.080       .  S
C679        C680   1.411       .  A
C679        C758   1.512       .  S
C680        H683   1.079       .  S
C684        C685   1.395       .  A
C684        C689   1.394       .  A
C684       C1080   1.486       .  S
C685        C686   1.411       .  A
C685        H690   1.082       .  S
C686        C687   1.423       .  A
C686       C1065   1.518       .  S
C687        C688   1.424       .  A
C687        H691   1.079       .  S
C688        C689   1.409       .  A
C688        C751   1.514       .  S
C689        H692   1.078       .  S
O693       Ni701   1.929       .  S
O693        C703   1.285       .  A
O694       Ni701   1.929       .  S
O694        C704   1.284       .  A
O695       Ni701   1.899       .  S
O695        C705   1.279       .  A
O696       Ni701   1.897       .  S
O696        C706   1.278       .  A
O697       Ni702   1.943       .  S
O697        C706   1.286       .  A
O698       Ni702   1.937       .  S
O698        C705   1.285       .  A
O699       Ni702   1.904       .  S
O699        C704   1.278       .  A
O700       Ni702   1.906       .  S
O700        C703   1.276       .  A
Ni701      Ni702   2.378       .  S
C703       C1077   1.495       .  S
C704       C1053   1.487       .  S
C705       C1092   1.490       .  S
C706       C1041   1.499       .  S
C707        C708   1.399       .  A
C707        C712   1.392       .  A
C707       C1056   1.477       .  S
C708        C709   1.416       .  A
C708        H713   1.079       .  S
C709        C710   1.419       .  A
C709        C767   1.516       .  S
C710        C711   1.415       .  A
C710        H714   1.079       .  S
C711        C712   1.400       .  A
C711       C1029   1.491       .  S
C712        H715   1.084       .  S
C716        C717   1.403       .  A
C716        C721   1.397       .  A
C716       C1044   1.488       .  S
C717        C718   1.414       .  A
C717        H722   1.078       .  S
C718        C719   1.416       .  A
C718        C778   1.516       .  S
C719        C720   1.410       .  A
C719        H723   1.077       .  S
C720        C721   1.405       .  A
C720       C1020   1.499       .  S
C721        H724   1.081       .  S
C725       C1958   1.425   1_455  A
C725        C730   1.409   1_554  A
C725        C993   1.491       .  S
C726       C1957   1.425       .  A
C726        C727   1.405   1_554  A
C726       C1152   1.499       .  S
C727       C1960   1.404       .  A
C727        H732   1.084       .  S
C728       C1959   1.404   1_455  A
C728        C729   1.414       .  A
C728       C1005   1.479       .  S
C729        C730   1.405       .  A
C729       C1068   1.494       .  S
C730        H731   1.084       .  S
O733       Ni741   1.932       .  S
O733        C743   1.285       .  A
O734       Ni741   1.931       .  S
O734        C744   1.285       .  A
O735       Ni741   1.893       .  S
O735        C745   1.277       .  A
O736       Ni741   1.896       .  S
O736        C746   1.277       .  A
O737       Ni742   1.943       .  S
O737        C746   1.286       .  A
O738       Ni742   1.945       .  S
O738        C745   1.287       .  A
O739       Ni742   1.905       .  S
O739        C744   1.278       .  A
O740       Ni742   1.899       .  S
O740        C743   1.277       .  A
Ni741      Ni742   2.381       .  S
C743        C984   1.479       .  S
C744        C957   1.490       .  S
C745        C969   1.496       .  S
C746        C945   1.496       .  S
C747        C748   1.392       .  A
C747        C752   1.407       .  A
C747        C972   1.493       .  S
C748        C749   1.396       .  A
C748        H753   1.085       .  S
C749        C750   1.409       .  A
C749       C1104   1.484       .  S
C750        C751   1.414       .  A
C750        H754   1.079       .  S
C751        C752   1.422       .  A
C752        H755   1.080       .  S
C756        C757   1.402       .  A
C756        C761   1.391       .  A
C756       C2192   1.482       .  S
C757        C758   1.419       .  A
C757        H762   1.079       .  S
C758        C759   1.416       .  A
C759        C760   1.411       .  A
C759        H763   1.080       .  S
C760        C761   1.401       .  A
C760       C1008   1.495       .  S
C761        H764   1.083   1_455  S
C765        C766   1.399       .  A
C765        C770   1.389       .  A
C765        C981   1.474       .  S
C766        C767   1.418       .  A
C766        H771   1.079       .  S
C767        C768   1.421       .  A
C768        C769   1.413       .  A
C768        H772   1.081       .  S
C769        C770   1.396       .  A
C769        C933   1.481       .  S
C770        H773   1.085       .  S
C774        C775   1.396       .  A
C774        C779   1.406       .  A
C774       C2180   1.488       .  S
C775        C776   1.403       .  A
C775        H780   1.084       .  S
C776        C777   1.406       .  A
C776        C924   1.494       .  S
C777        C778   1.417       .  A
C777        H781   1.075       .  S
C778        C779   1.416       .  A
C779        H782   1.078       .  S
C783       C2016   1.402   1_455  A
C783        C788   1.393       .  A
C783        C909   1.480       .  S
C784       C2015   1.402       .  A
C784        C785   1.414       .  A
C784        H789   1.078       .  S
C785        C786   1.423       .  A
C786        C787   1.414       .  A
C786        H790   1.079       .  S
C787       C2020   1.400       .  A
C787       C2228   1.498       .  S
C788       C2019   1.400   1_455  A
C788        H791   1.084       .  S
C792        C793   1.391       .  A
C792        C797   1.402       .  A
C792        C897   1.474       .  S
C793        C794   1.397       .  A
C793        H798   1.084       .  S
C794        C795   1.410       .  A
C794       C1116   1.482       .  S
C795        C796   1.416       .  A
C795        H799   1.081       .  S
C796        C797   1.416       .  A
C797        H800   1.080       .  S
O801       Ni809   1.935       .  S
O801        C811   1.285       .  A
O802       Ni809   1.934       .  S
O802        C812   1.286       .  A
O803       Ni809   1.898       .  S
O803        C813   1.275       .  A
O804       Ni809   1.890       .  S
O804        C814   1.275       .  A
O805       Ni810   1.941       .  S
O805        C814   1.286       .  A
O806       Ni810   1.938       .  S
O806        C813   1.287       .  A
O807       Ni810   1.898       .  S
O807        C812   1.276       .  A
O808       Ni810   1.895       .  S
O808        C811   1.275       .  A
Ni809      Ni810   2.386       .  S
C811        C888   1.469       .  S
C812        C912   1.484       .  S
C813        C876   1.492       .  S
C814        C900   1.477       .  S
C815        C816   1.391       .  A
C815       C2052   1.397   1_455  A
C815        C873   1.480       .  S
C816       C2049   1.407   1_455  A
C816        H821   1.082       .  S
C817       C2048   1.407       .  A
C817        C818   1.415       .  A
C817       C2093   1.507       .  S
C818        C819   1.418       .  A
C818        H822   1.079       .  S
C819        C820   1.413       .  A
C820       C2047   1.397       .  A
C820        H823   1.079       .  S
C824        C825   1.387       .  A
C824        C829   1.402       .  A
C824        C885   1.478       .  S
C825        C826   1.392       .  A
C825        H830   1.085       .  S
C826        C827   1.410       .  A
C826        C849   1.481       .  S
C827        C828   1.422       .  A
C827        H831   1.079       .  S
C828        C829   1.423       .  A
C829        H832   1.078       .  S
C833       C1450   1.414   1_455  A
C833        C838   1.401       .  A
C833        C864   1.480       .  S
C834       C1449   1.414   1_565  A
C834        C835   1.404       .  A
C834       C1212   1.489       .  S
C835       C2068   1.408       .  A
C835        H840   1.083       .  S
C836       C2067   1.408   1_455  A
C836        C837   1.423       .  A
C836        C921   1.493       .  S
C837       C1032   1.489       .  S
C838        H839   1.084       .  S
C841        C842   1.422       .  A
C841        C846   1.403       .  A
C841        C852   1.487       .  S
C842        C843   1.404       .  A
C842       C1164   1.494       .  S
C843        C844   1.407       .  A
C843        H848   1.084       .  S
C844        C845   1.421       .  A
C844        C936   1.492       .  S
C845        C846   1.402       .  A
C845       C1017   1.489       .  S
C846        H847   1.084       .  S
C849        C850   1.403       .  A
C849        C854   1.414       .  A
C850        C851   1.404       .  A
C850        H859   1.084       .  S
C851        C852   1.417       .  A
C851        S855   1.806       .  S
C852        C853   1.402       .  A
C853        C854   1.393       .  A
C853        H860   1.084       .  S
C854        S856   1.805       .  S
S855        H858   1.404       .  S
S856        H857   1.407       .  S
C861       C2094   1.413       .  A
C861        C866   1.426   1_455  A
C861       C2049   1.507   1_455  S
C862       C2093   1.413       .  A
C862        C863   1.390       .  A
C862        H871   1.081       .  S
C863       C2096   1.405       .  A
C864       C2095   1.405       .  A
C864        C865   1.401   1_455  A
C865        C866   1.406       .  A
C865        H872   1.084       .  S
C866        S868   1.803       .  S
S867        H870   1.404   1_545  S
S868        H869   1.407       .  S
C873        C874   1.396       .  A
C873        C878   1.415       .  A
C874        C875   1.403       .  A
C874        H883   1.083       .  S
C875        C876   1.425       .  A
C875        S879   1.811       .  S
C876        C877   1.405       .  A
C877        C878   1.400       .  A
C877        H884   1.083       .  S
C878        S880   1.805       .  S
S879        H882   1.407       .  S
S880        H881   1.406   1_455  S
C885        C886   1.402       .  A
C885        C890   1.413       .  A
C886        C887   1.397       .  A
C886        H895   1.083       .  S
C887        C888   1.409       .  A
C887        S891   1.810       .  S
C888        C889   1.403       .  A
C889        C890   1.404       .  A
C889        H896   1.084       .  S
C890        S892   1.803       .  S
S891        H894   1.407       .  S
S892        H893   1.406       .  S
C897        C898   1.398       .  A
C897        C902   1.414       .  A
C898        C899   1.399       .  A
C898        H907   1.083       .  S
C899        C900   1.416       .  A
C899        S903   1.811       .  S
C900        C901   1.403       .  A
C901        C902   1.403       .  A
C901        H908   1.084       .  S
C902        S904   1.804       .  S
S903        H906   1.407       .  S
S904        H905   1.405       .  S
C909        C910   1.397       .  A
C909        C914   1.416       .  A
C910        C911   1.394       .  A
C910        H919   1.084       .  S
C911        C912   1.421       .  A
C911        S915   1.803       .  S
C912        C913   1.405       .  A
C913        C914   1.403       .  A
C913        H920   1.084       .  S
C914       S2148   1.805       .  S
S915        H918   1.408       .  S
S916       C2146   1.805       .  S
S916        H917   1.406       .  S
C921        C922   1.405       .  A
C921        C926   1.411   1_455  A
C922        C923   1.399       .  A
C922        H931   1.083       .  S
C923        C924   1.418       .  A
C923        S927   1.804       .  S
C924        C925   1.409       .  A
C925        C926   1.403   1_455  A
C925       H2164   1.082   1_455  S
C926       S2160   1.808       .  S
S927        H930   1.407       .  S
S928       C2158   1.808       .  S
S928        H929   1.406       .  S
H932       C2157   1.082       .  S
C933        C934   1.403       .  A
C933        C938   1.413       .  A
C934        C935   1.403       .  A
C934        H943   1.084       .  S
C935        C936   1.417       .  A
C935        S939   1.806       .  S
C936        C937   1.405       .  A
C937        C938   1.398       .  A
C937        H944   1.084       .  S
C938        S940   1.804       .  S
S939        H942   1.404       .  S
S940        H941   1.407       .  S
C945        C946   1.410       .  A
C945        C950   1.417       .  A
C946        C947   1.395       .  A
C946        H955   1.083       .  S
C947        C948   1.411       .  A
C947       S2183   1.806       .  S
C948        C949   1.408       .  A
C948       C2006   1.488       .  S
C949        C950   1.407       .  A
C949        H956   1.084       .  S
C950        S952   1.798       .  S
S951       C2179   1.806       .  S
S951        H954   1.407       .  S
S952        H953   1.407       .  S
C957        C958   1.411       .  A
C957        C962   1.416       .  A
C958        C959   1.400       .  A
C958        H967   1.083       .  S
C959        C960   1.408       .  A
C959        S963   1.804       .  S
C960        C961   1.405       .  A
C960       C1988   1.482       .  S
C961        C962   1.401       .  A
C961       H2200   1.084       .  S
C962        S964   1.802       .  S
S963        H966   1.406       .  S
S964        H965   1.408       .  S
H968       C2193   1.084       .  S
C969        C970   1.412       .  A
C969        C974   1.416       .  A
C970        C971   1.397       .  A
C970        H979   1.083       .  S
C971        C972   1.412       .  A
C971        S975   1.805       .  S
C972        C973   1.411       .  A
C973        C974   1.404       .  A
C973        H980   1.084       .  S
C974        S976   1.800       .  S
S975        H978   1.407       .  S
S976        H977   1.408       .  S
C981        C982   1.403       .  A
C981        C986   1.409       .  A
C982        C983   1.401       .  A
C982        H991   1.084       .  S
C983        C984   1.414       .  A
C983        S987   1.802       .  S
C984        C985   1.407       .  A
C985        C986   1.397       .  A
C985        H992   1.084       .  S
C986        S988   1.805       .  S
S987        H990   1.407       .  S
S988        H989   1.405       .  S
C993       C2226   1.405       .  A
C993        C998   1.411       .  A
C994       C2225   1.405       .  A
C994        C995   1.405       .  A
C994       H1003   1.084       .  S
C995       C2228   1.419       .  A
C995        S999   1.802       .  S
C996       C2227   1.419       .  A
C996        C997   1.409       .  A
C996       C2019   1.498   1_455  S
C997        C998   1.398       .  A
C997       H1004   1.084       .  S
C998       S1000   1.803       .  S
S999       H1002   1.406       .  S
S1000      H1001   1.406       .  S
C1005      C1006   1.402       .  A
C1005      C1010   1.407       .  A
C1006      C1007   1.401       .  A
C1006      H1015   1.084       .  S
C1007      C1008   1.419       .  A
C1007      S1011   1.803       .  S
C1008      C1009   1.410       .  A
C1009      C1010   1.394       .  A
C1009      H1016   1.082       .  S
C1010      S1012   1.803   1_455  S
S1011      H1014   1.407       .  S
S1012      H1013   1.402       .  S
C1017      C1018   1.402       .  A
C1017      C1022   1.410       .  A
C1018      C1019   1.402       .  A
C1018      H1027   1.084       .  S
C1019      C1020   1.420       .  A
C1019      S1023   1.804       .  S
C1020      C1021   1.409       .  A
C1021      C1022   1.397       .  A
C1021      H1028   1.082       .  S
C1022      S1024   1.801       .  S
S1023      H1026   1.407       .  S
S1024      H1025   1.407       .  S
C1029      C1030   1.407       .  A
C1029      C1034   1.416       .  A
C1030      C1031   1.397       .  A
C1030      H1039   1.084       .  S
C1031      C1032   1.412       .  A
C1031      S1035   1.804       .  S
C1032      C1033   1.405       .  A
C1033      C1034   1.404       .  A
S1035      H1038   1.405       .  S
S1036      H1037   1.406       .  S
C1041      C1042   1.411       .  A
C1041      C1046   1.420       .  A
C1042      C1043   1.394       .  A
C1042      H1051   1.083       .  S
C1043      C1044   1.411       .  A
C1043      S1047   1.807       .  S
C1044      C1045   1.406       .  A
C1045      C1046   1.408       .  A
C1045      H1052   1.083       .  S
C1046      S1048   1.798       .  S
S1047      H1050   1.407       .  S
S1048      H1049   1.407       .  S
C1053      C1054   1.409       .  A
C1053      C1058   1.419       .  A
C1054      C1055   1.405       .  A
C1054      H1063   1.083       .  S
C1057      C1058   1.394       .  A
C1057      H1064   1.085       .  S
C1058      S1060   1.804       .  S
S1059      H1062   1.406       .  S
S1060      H1061   1.408       .  S
C1065      C1066   1.415       .  A
C1065      C1070   1.426       .  A
C1066      C1067   1.396       .  A
C1066      H1075   1.081       .  S
C1067      C1068   1.406       .  A
C1067      S1071   1.804       .  S
C1068      C1069   1.405       .  A
C1069      C1070   1.412       .  A
C1069      H1076   1.084       .  S
C1070      S1072   1.802       .  S
S1071      H1074   1.403       .  S
S1072      H1073   1.407       .  S
C1077      C1078   1.408       .  A
C1077      C1082   1.424       .  A
C1078      C1079   1.400       .  A
C1078      H1087   1.083       .  S
C1079      C1080   1.414       .  A
C1079      S1083   1.805       .  S
C1080      C1081   1.401       .  A
C1081      C1082   1.399       .  A
C1081      H1088   1.084       .  S
C1082      S1084   1.802       .  S
S1083      H1086   1.407       .  S
S1084      H1085   1.408       .  S
C1090      C1091   1.408       .  A
C1091      C1092   1.419       .  A
C1091      S1095   1.800       .  S
C1092      C1093   1.407       .  A
C1093      C1094   1.392       .  A
C1093      H1100   1.084       .  S
C1094      S1096   1.807       .  S
S1095      H1098   1.407       .  S
C1101      C1102   1.404       .  A
C1101      C1106   1.407       .  A
C1102      C1103   1.402       .  A
C1102      H1111   1.084       .  S
C1103      C1104   1.415       .  A
C1103      S1107   1.802       .  S
C1104      C1105   1.407       .  A
C1105      C1106   1.391       .  A
C1105      H1112   1.084       .  S
C1106      S1108   1.803       .  S
S1107      H1110   1.406       .  S
S1108      H1109   1.406       .  S
C1113      C1114   1.404       .  A
C1113      C1118   1.414       .  A
C1114      C1115   1.398       .  A
C1114      H1123   1.084       .  S
C1115      C1116   1.415       .  A
C1115      S1119   1.804       .  S
C1116      C1117   1.404       .  A
C1117      C1118   1.400       .  A
C1117      H1124   1.084       .  S
C1118      S1120   1.802   1_554  S
S1119      H1122   1.407       .  S
S1120      H1121   1.405       .  S
C1125      C1126   1.410       .  A
C1125      C1130   1.418       .  A
C1126      C1127   1.402       .  A
C1127      C1128   1.414       .  A
C1128      C1129   1.406       .  A
C1129      C1130   1.403       .  A
C1129      H1136   1.083       .  S
C1130      S1132   1.802       .  S
S1131      H1134   1.403       .  S
S1132      H1133   1.405       .  S
C1137      C1142   1.410       .  A
C1138      C1139   1.398       .  A
C1138      H1147   1.083       .  S
C1139      S1143   1.797       .  S
C1140      C1141   1.411       .  A
C1141      C1142   1.404       .  A
C1141      H1148   1.082       .  S
C1142      S1144   1.807       .  S
S1143      H1146   1.407       .  S
S1144      H1145   1.407       .  S
C1149      C1150   1.411       .  A
C1149      C1154   1.418       .  A
C1150      C1151   1.404       .  A
C1150      H1159   1.083       .  S
C1151      C1152   1.416       .  A
C1151      S1155   1.804       .  S
C1152      C1153   1.403       .  A
C1153      C1154   1.398       .  A
C1153      H1160   1.083       .  S
C1154      S1156   1.798       .  S
S1155      H1158   1.405       .  S
S1156      H1157   1.407       .  S
C1161      C1162   1.410       .  A
C1161      C1166   1.422       .  A
C1162      C1163   1.399       .  A
C1162      H1171   1.082       .  S
C1163      C1164   1.411       .  A
C1163      S1167   1.802       .  S
C1164      C1165   1.403       .  A
C1165      C1166   1.404       .  A
C1165      H1172   1.084       .  S
C1166      S1168   1.804       .  S
S1167      H1170   1.406       .  S
S1168      H1169   1.407       .  S
C1173      C1174   1.404       .  A
C1173      C1178   1.408       .  A
C1174      C1175   1.408       .  A
C1174      H1183   1.084       .  S
C1175      C1176   1.417       .  A
C1175      S1179   1.803   1_565  S
C1176      C1177   1.408       .  A
C1177      C1178   1.404       .  A
C1177      H1184   1.083       .  S
C1178      S1180   1.808       .  S
S1179      H1182   1.407       .  S
S1180      H1181   1.407       .  S
C1185      C1186   1.409       .  A
C1185      C1190   1.421       .  A
C1186      C1187   1.394       .  A
C1186      H1195   1.083       .  S
C1187      C1188   1.412       .  A
C1187      S1191   1.806       .  S
C1188      C1189   1.405       .  A
C1189      C1190   1.406       .  A
C1189      H1196   1.084       .  S
C1190      S1192   1.799       .  S
S1191      H1194   1.407       .  S
S1192      H1193   1.408       .  S
C1197      C1198   1.404       .  A
C1197      C1202   1.411       .  A
C1198      C1199   1.410       .  A
C1198      H1207   1.084       .  S
C1199      C1200   1.420       .  A
C1199      S1203   1.800       .  S
C1200      C1201   1.407       .  A
C1201      C1202   1.396       .  A
C1201      H1208   1.084       .  S
C1202      S1204   1.806       .  S
S1203      H1206   1.407       .  S
S1204      H1205   1.406       .  S
C1209      C1214   1.420   1_545  A
C1210      C1211   1.405       .  A
C1210      H1219   1.083       .  S
C1211      S1215   1.804       .  S
C1212      C1213   1.399       .  A
C1213      C1214   1.398       .  A
C1213      H1220   1.081       .  S
C1214      S1216   1.805       .  S
S1215      H1218   1.403       .  S
S1216      H1217   1.407   1_565  S
C1221      C1222   1.398       .  A
C1221      C1226   1.413       .  A
C1222      C1223   1.398       .  A
C1222      H1231   1.084       .  S
C1223      C1224   1.420       .  A
C1223      S1227   1.803       .  S
C1224      C1225   1.404       .  A
C1225      C1226   1.401       .  A
C1225      H1232   1.084       .  S
C1226      S1228   1.805       .  S
S1227      H1230   1.407       .  S
C1233      C1850   1.397       .  A
C1233      C1238   1.391       .  A
C1233      C1837   1.476       .  S
C1234      C1849   1.397   1_545  A
C1234      C1235   1.417       .  A
C1234      H1239   1.077       .  S
C1235      C1236   1.424       .  A
C1235      C1444   1.521       .  S
C1236      C1237   1.417       .  A
C1236      H1240   1.079       .  S
C1237      C1854   1.401   1_545  A
C1237      C2441   1.500       .  S
C1238      C1853   1.401       .  A
C1238      H1241   1.083       .  S
O1242     Ni1250   1.931       .  S
O1242      C1252   1.285       .  A
O1243     Ni1250   1.932       .  S
O1243      C1253   1.283       .  A
O1244     Ni1250   1.916       .  S
O1244      C1254   1.279       .  A
O1245     Ni1250   1.911       .  S
O1245      C1255   1.281       .  A
O1246     Ni1251   1.937       .  S
O1246      C1255   1.285       .  A
O1247     Ni1251   1.937       .  S
O1247      C1254   1.284       .  A
O1248     Ni1251   1.907       .  S
O1248      C1253   1.281       .  A
O1249     Ni1251   1.904       .  S
O1249      C1252   1.278       .  A
Ni1250    Ni1251   2.383       .  S
C1252      C1840   1.483       .  S
C1253      C1801   1.498       .  S
C1254      C1789   1.480       .  S
C1255      C1816   1.496       .  S
C1256      C1257   1.400       .  A
C1256      C1261   1.399       .  A
C1256      C1813   1.485       .  S
C1257      C1258   1.411       .  A
C1257      H1262   1.080       .  S
C1258      C1259   1.414       .  A
C1258      C1435   1.509       .  S
C1259      C1260   1.413       .  A
C1259      H1263   1.080       .  S
C1260      C1261   1.410       .  A
C1260      C1777   1.505       .  S
C1261      H1264   1.081       .  S
C1265      C1266   1.399       .  A
C1265      C1270   1.402       .  A
C1265      C1804   1.487       .  S
C1266      C1267   1.407       .  A
C1266      H1271   1.083       .  S
C1267      C1268   1.413       .  A
C1267      C1765   1.503       .  S
C1268      C1269   1.416       .  A
C1268      H1272   1.080       .  S
C1269      C1270   1.411       .  A
C1269      C1412   1.510       .  S
C1270      H1273   1.080       .  S
C1274      C1275   1.397       .  A
C1274      C1895   1.407       .  A
C1274      C1792   1.497       .  S
C1275      C1892   1.405       .  A
C1275      H1280   1.083       .  S
C1276      C1891   1.405       .  A
C1276      C1277   1.410   1_565  A
C1276      C2372   1.501       .  S
C1277      C1278   1.416       .  A
C1277      H1281   1.079       .  S
C1278      C1279   1.421       .  A
C1278      C1401   1.519       .  S
C1279      C1890   1.407   1_545  A
C1279      H1282   1.077       .  S
C1283      C1900   1.420       .  A
C1283      C1288   1.408   1_554  A
C1283      C1729   1.486   1_565  S
C1284      C1899   1.420       .  A
C1284      C1285   1.399   1_554  A
C1284      C1753   1.492       .  S
C1285      C1286   1.401       .  A
C1285      H1290   1.084       .  S
C1286      C1287   1.420       .  A
C1286      C1717   1.478       .  S
C1287      C1904   1.406       .  A
C1287      C1744   1.499       .  S
C1288      C1903   1.406       .  A
C1288      H1289   1.084   1_566  S
C1291      C1292   1.394       .  A
C1291      C1296   1.399       .  A
C1291      C1705   1.479       .  S
C1292      C1293   1.407       .  A
C1292      H1297   1.084       .  S
C1293      C1294   1.414       .  A
C1293      C1741   1.501       .  S
C1294      C1295   1.420       .  A
C1294      H1298   1.080       .  S
C1295      C1296   1.411       .  A
C1295      C1374   1.512       .  S
C1296      H1299   1.079       .  S
C1300      C1301   1.395       .  A
C1300      C1305   1.394       .  A
C1300      C1696   1.486       .  S
C1301      C1302   1.411       .  A
C1301      H1306   1.082       .  S
C1302      C1303   1.423       .  A
C1302      C1681   1.518       .  S
C1303      C1304   1.424       .  A
C1303      H1307   1.079       .  S
C1304      C1305   1.409       .  A
C1304      C1367   1.514       .  S
C1305      H1308   1.078       .  S
O1309     Ni1317   1.929       .  S
O1309      C1319   1.285       .  A
O1310     Ni1317   1.929       .  S
O1310      C1320   1.284       .  A
O1311     Ni1317   1.899       .  S
O1311      C1321   1.279       .  A
O1312     Ni1317   1.897       .  S
O1312      C1322   1.278       .  A
O1313     Ni1318   1.943       .  S
O1313      C1322   1.286       .  A
O1314     Ni1318   1.937       .  S
O1314      C1321   1.285       .  A
O1315     Ni1318   1.904       .  S
O1315      C1320   1.278       .  A
O1316     Ni1318   1.906       .  S
O1316      C1319   1.276       .  A
Ni1317    Ni1318   2.378       .  S
C1319      C1693   1.495       .  S
C1320      C1669   1.487       .  S
C1321      C1708   1.490       .  S
C1322      C1657   1.499       .  S
C1323      C1324   1.399       .  A
C1323      C1328   1.392       .  A
C1323      C1672   1.477       .  S
C1324      C1325   1.416       .  A
C1324      H1329   1.079       .  S
C1325      C1326   1.419       .  A
C1325      C1383   1.516       .  S
C1326      C1327   1.415       .  A
C1326      H1330   1.079       .  S
C1327      C1328   1.400       .  A
C1327      C1645   1.491       .  S
C1328      H1331   1.084       .  S
C1332      C1333   1.403       .  A
C1332      C1337   1.397       .  A
C1332      C1660   1.488       .  S
C1333      C1334   1.414       .  A
C1333      H1338   1.078       .  S
C1334      C1335   1.416       .  A
C1334      C1394   1.516       .  S
C1335      C1336   1.410       .  A
C1335      H1339   1.077       .  S
C1336      C1337   1.405       .  A
C1336      C1636   1.499       .  S
C1337      H1340   1.081       .  S
C1341      C1346   1.409   1_554  A
C1341      C1609   1.491       .  S
C1342      C1343   1.405   1_554  A
C1342      C1768   1.499       .  S
C1343      H1348   1.084       .  S
C1344      C1345   1.414       .  A
C1344      C1621   1.479       .  S
C1345      C1346   1.405       .  A
C1345      C1684   1.494       .  S
C1346      H1347   1.084       .  S
O1349     Ni1357   1.932       .  S
O1349      C1359   1.285       .  A
O1350     Ni1357   1.931       .  S
O1350      C1360   1.285       .  A
O1351     Ni1357   1.893       .  S
O1351      C1361   1.277       .  A
O1352     Ni1357   1.896       .  S
O1352      C1362   1.277       .  A
O1353     Ni1358   1.943       .  S
O1353      C1362   1.286       .  A
O1354     Ni1358   1.945       .  S
O1354      C1361   1.287       .  A
O1355     Ni1358   1.905       .  S
O1355      C1360   1.278       .  A
O1356     Ni1358   1.899       .  S
O1356      C1359   1.277       .  A
Ni1357    Ni1358   2.381       .  S
C1359      C1600   1.479       .  S
C1360      C1573   1.491       .  S
C1361      C1585   1.496       .  S
C1362      C1561   1.495       .  S
C1363      C1364   1.392       .  A
C1363      C1368   1.407       .  A
C1363      C1588   1.493       .  S
C1364      C1365   1.396       .  A
C1364      H1369   1.085       .  S
C1365      C1366   1.409       .  A
C1365      C1720   1.484       .  S
C1366      C1367   1.414       .  A
C1366      H1370   1.079       .  S
C1367      C1368   1.422       .  A
C1368      H1371   1.080       .  S
C1372      C1373   1.402       .  A
C1372      C1377   1.391       .  A
C1373      C1374   1.419       .  A
C1373      H1378   1.079       .  S
C1374      C1375   1.416       .  A
C1375      C1376   1.411       .  A
C1375      H1379   1.080       .  S
C1376      C1377   1.401       .  A
C1376      C1624   1.495       .  S
C1377      H1380   1.083       .  S
C1381      C1382   1.399       .  A
C1381      C1386   1.389       .  A
C1381      C1597   1.474       .  S
C1382      C1383   1.418       .  A
C1382      H1387   1.079       .  S
C1383      C1384   1.421       .  A
C1384      C1385   1.413       .  A
C1384      H1388   1.081       .  S
C1385      C1386   1.396       .  A
C1385      C1549   1.481       .  S
C1386      H1389   1.085       .  S
C1390      C1391   1.396       .  A
C1390      C1395   1.406       .  A
C1391      C1392   1.403       .  A
C1391      H1396   1.084       .  S
C1392      C1393   1.406       .  A
C1392      C1540   1.494       .  S
C1393      C1394   1.417       .  A
C1393      H1397   1.075       .  S
C1394      C1395   1.416       .  A
C1395      H1398   1.078       .  S
C1399      C1404   1.393       .  A
C1399      C1525   1.480       .  S
C1400      C1401   1.414       .  A
C1400      H1405   1.078       .  S
C1401      C1402   1.423       .  A
C1402      C1403   1.414       .  A
C1402      H1406   1.079       .  S
C1404      H1407   1.084       .  S
C1408      C1409   1.391       .  A
C1408      C1413   1.402       .  A
C1408      C1513   1.474       .  S
C1409      C1410   1.397       .  A
C1409      H1414   1.084       .  S
C1410      C1411   1.410       .  A
C1410      C1732   1.482       .  S
C1411      C1412   1.416       .  A
C1411      H1415   1.081       .  S
C1412      C1413   1.416       .  A
C1413      H1416   1.080       .  S
O1417     Ni1425   1.935       .  S
O1417      C1427   1.285       .  A
O1418     Ni1425   1.934       .  S
O1418      C1428   1.286       .  A
O1419     Ni1425   1.898       .  S
O1419      C1429   1.275       .  A
O1420     Ni1425   1.890       .  S
O1420      C1430   1.275       .  A
O1421     Ni1426   1.941       .  S
O1421      C1430   1.286       .  A
O1422     Ni1426   1.938       .  S
O1422      C1429   1.287       .  A
O1423     Ni1426   1.898       .  S
O1423      C1428   1.276       .  A
O1424     Ni1426   1.895       .  S
O1424      C1427   1.275       .  A
Ni1425    Ni1426   2.386       .  S
C1427      C1504   1.469       .  S
C1428      C1528   1.484       .  S
C1429      C1492   1.492       .  S
C1430      C1516   1.477       .  S
C1431      C1432   1.391       .  A
C1431      C1489   1.480       .  S
C1432      H1437   1.082       .  S
C1433      C1434   1.415       .  A
C1434      C1435   1.418       .  A
C1434      H1438   1.079       .  S
C1435      C1436   1.413       .  A
C1436      H1439   1.079       .  S
C1440      C1441   1.387       .  A
C1440      C1445   1.402       .  A
C1440      C1501   1.478       .  S
C1441      C1442   1.392       .  A
C1441      H1446   1.085       .  S
C1442      C1443   1.410       .  A
C1442      C1465   1.481       .  S
C1443      C1444   1.422       .  A
C1443      H1447   1.079       .  S
C1444      C1445   1.423       .  A
C1445      H1448   1.078       .  S
C1449      C1454   1.401       .  A
C1449      C1480   1.480       .  S
C1450      C1451   1.404       .  A
C1450      C1828   1.489       .  S
C1451      H1456   1.083       .  S
C1452      C1453   1.423       .  A
C1452      C1537   1.493       .  S
C1453      C2070   1.402       .  A
C1453      C1648   1.489       .  S
C1454      C2069   1.402   1_545  A
C1454      H1455   1.084       .  S
C1457      C1458   1.422       .  A
C1457      C1462   1.403       .  A
C1457      C1468   1.487       .  S
C1458      C1459   1.404       .  A
C1458      C1780   1.494       .  S
C1459      C1460   1.407       .  A
C1459      H1464   1.084       .  S
C1460      C1461   1.421       .  A
C1460      C1552   1.492       .  S
C1461      C1462   1.402       .  A
C1461      C1633   1.489       .  S
C1462      H1463   1.084       .  S
C1465      C1466   1.403       .  A
C1465      C1470   1.414       .  A
C1466      C1467   1.404       .  A
C1466      H1475   1.084       .  S
C1467      C1468   1.417       .  A
C1467      S1471   1.806       .  S
C1468      C1469   1.402       .  A
C1469      C1470   1.393       .  A
C1469      H1476   1.084       .  S
C1470      S1472   1.805       .  S
S1471      H1474   1.404       .  S
S1472      H1473   1.407       .  S
C1477      C1482   1.426       .  A
C1478      C1479   1.390       .  A
C1478      H1487   1.081       .  S
C1479      S2099   1.807       .  S
C1480      C1481   1.401       .  A
C1481      C1482   1.406       .  A
C1481      H1488   1.084       .  S
C1482      S1484   1.803       .  S
S1483      C2095   1.807       .  S
S1483      H1486   1.404       .  S
S1484      H1485   1.407       .  S
C1489      C1490   1.396       .  A
C1489      C1494   1.415       .  A
C1490      C1491   1.403       .  A
C1490      H1499   1.083       .  S
C1491      C1492   1.425       .  A
C1491      S1495   1.811       .  S
C1492      C1493   1.405       .  A
C1493      C1494   1.400       .  A
C1493      H1500   1.083       .  S
C1494      S1496   1.805       .  S
S1495      H1498   1.407       .  S
S1496      H1497   1.406       .  S
C1501      C1502   1.402       .  A
C1501      C1506   1.413       .  A
C1502      C1503   1.397       .  A
C1502      H1511   1.083       .  S
C1503      C1504   1.409       .  A
C1503      S1507   1.810       .  S
C1504      C1505   1.403       .  A
C1505      C1506   1.404       .  A
C1505      H1512   1.084       .  S
C1506      S1508   1.803       .  S
S1507      H1510   1.407       .  S
S1508      H1509   1.406       .  S
C1513      C1514   1.398       .  A
C1513      C1518   1.414       .  A
C1514      C1515   1.399       .  A
C1514      H1523   1.083       .  S
C1515      C1516   1.416       .  A
C1515      S1519   1.811       .  S
C1516      C1517   1.403       .  A
C1517      C1518   1.403       .  A
C1517      H1524   1.084       .  S
C1518      S1520   1.804       .  S
S1519      H1522   1.407       .  S
S1520      H1521   1.405       .  S
C1525      C1526   1.397       .  A
C1525      C1530   1.416       .  A
C1526      C1527   1.394       .  A
C1526      H1535   1.084       .  S
C1527      C1528   1.421       .  A
C1527      S1531   1.803       .  S
C1528      C1529   1.405       .  A
C1529      C1530   1.403       .  A
C1529      H1536   1.084       .  S
S1531      H1534   1.408       .  S
S1532      H1533   1.406   1_455  S
C1537      C1538   1.405       .  A
C1537      C1542   1.411       .  A
C1538      C1539   1.399       .  A
C1538      H1547   1.083       .  S
C1539      C1540   1.418       .  A
C1539      S1543   1.804       .  S
C1540      C1541   1.409       .  A
C1541      C1542   1.403       .  A
S1543      H1546   1.407       .  S
S1544      H1545   1.406       .  S
C1549      C1550   1.403       .  A
C1549      C1554   1.413       .  A
C1550      C1551   1.403       .  A
C1550      H1559   1.084       .  S
C1551      C1552   1.417       .  A
C1551      S1555   1.806       .  S
C1552      C1553   1.405       .  A
C1553      C1554   1.398       .  A
C1553      H1560   1.084       .  S
C1554      S1556   1.804       .  S
S1555      H1558   1.404       .  S
S1556      H1557   1.407       .  S
C1561      C1562   1.410       .  A
C1561      C1566   1.417       .  A
C1562      C1563   1.395       .  A
C1562      H1571   1.083       .  S
C1563      C1564   1.411   1_655  A
C1564      C1565   1.408       .  A
C1565      C1566   1.407   1_455  A
C1565      H1572   1.084       .  S
C1566      S1568   1.798       .  S
S1567      H1570   1.407       .  S
S1568      H1569   1.407       .  S
C1573      C1574   1.411       .  A
C1573      C1578   1.416       .  A
C1574      C1575   1.400       .  A
C1574      H1583   1.083       .  S
C1575      C1576   1.408   1_655  A
C1575      S1579   1.804       .  S
C1576      C1577   1.405       .  A
C1577      C1578   1.401   1_455  A
C1578      S1580   1.802       .  S
S1579      H1582   1.406       .  S
S1580      H1581   1.408       .  S
C1585      C1586   1.412       .  A
C1585      C1590   1.416       .  A
C1586      C1587   1.397       .  A
C1586      H1595   1.083       .  S
C1587      C1588   1.412       .  A
C1587      S1591   1.805       .  S
C1588      C1589   1.411       .  A
C1589      C1590   1.404       .  A
C1589      H1596   1.084       .  S
C1590      S1592   1.800       .  S
S1591      H1594   1.407       .  S
S1592      H1593   1.408       .  S
C1597      C1598   1.403       .  A
C1597      C1602   1.409       .  A
C1598      C1599   1.401       .  A
C1598      H1607   1.084       .  S
C1599      C1600   1.414       .  A
C1599      S1603   1.802       .  S
C1600      C1601   1.407       .  A
C1601      C1602   1.397       .  A
C1601      H1608   1.084       .  S
C1602      S1604   1.805       .  S
S1603      H1606   1.407       .  S
S1604      H1605   1.405       .  S
C1609      C1614   1.411       .  A
C1610      C1611   1.405       .  A
C1610      H1619   1.084       .  S
C1611      S1615   1.802       .  S
C1612      C1613   1.409       .  A
C1613      C1614   1.398       .  A
C1613      H1620   1.084       .  S
C1614      S1616   1.803       .  S
S1615      H1618   1.406       .  S
S1616      H1617   1.406       .  S
C1621      C1622   1.402       .  A
C1621      C1626   1.407       .  A
C1622      C1623   1.401       .  A
C1622      H1631   1.084       .  S
C1623      C1624   1.419       .  A
C1623      S1627   1.803       .  S
C1624      C1625   1.410       .  A
C1625      C1626   1.394       .  A
C1625      H1632   1.083       .  S
C1626      S1628   1.803       .  S
S1627      H1630   1.407       .  S
S1628      H1629   1.402       .  S
C1633      C1634   1.402       .  A
C1633      C1638   1.410       .  A
C1634      C1635   1.402       .  A
C1634      H1643   1.084       .  S
C1635      C1636   1.420       .  A
C1635      S1639   1.804       .  S
C1636      C1637   1.409       .  A
C1637      C1638   1.397       .  A
C1637      H1644   1.082       .  S
C1638      S1640   1.801       .  S
S1639      H1642   1.407       .  S
S1640      H1641   1.407       .  S
C1645      C1646   1.407       .  A
C1645      C1650   1.416       .  A
C1646      C1647   1.397       .  A
C1646      H1655   1.084       .  S
C1647      C1648   1.412       .  A
C1647      S1651   1.804       .  S
C1648      C1649   1.405       .  A
C1649      C1650   1.404       .  A
C1649      H2272   1.084       .  S
C1650      S2268   1.802       .  S
S1651      H1654   1.405       .  S
S1652      C2266   1.802       .  S
S1652      H1653   1.406       .  S
H1656      C2265   1.084       .  S
C1657      C1658   1.411       .  A
C1657      C1662   1.420       .  A
C1658      C1659   1.394       .  A
C1658      H1667   1.083       .  S
C1659      C1660   1.411       .  A
C1659      S1663   1.807       .  S
C1660      C1661   1.406       .  A
C1661      C1662   1.408       .  A
C1661      H1668   1.083       .  S
C1662      S1664   1.798       .  S
S1663      H1666   1.407       .  S
S1664      H1665   1.407       .  S
C1669      C1670   1.409       .  A
C1669      C1674   1.419       .  A
C1670      C1671   1.405   1_545  A
C1670      H1679   1.083       .  S
C1671      C2288   1.412       .  A
C1671      S2291   1.805       .  S
C1672      C2287   1.412       .  A
C1672      C2289   1.398       .  A
C1673      C2288   1.398   1_545  A
C1673      C1674   1.394       .  A
C1673      H1680   1.085   1_545  S
C1674      S1676   1.804       .  S
S1675      C2287   1.805       .  S
S1675      H1678   1.406       .  S
S1676      H1677   1.408       .  S
C1681      C1682   1.415       .  A
C1681      C1686   1.426       .  A
C1682      C1683   1.396       .  A
C1682      H1691   1.081       .  S
C1683      C1684   1.406       .  A
C1683      S1687   1.804       .  S
C1684      C1685   1.405       .  A
C1685      C1686   1.412       .  A
C1685      H1692   1.083       .  S
C1686      S1688   1.802       .  S
S1687      H1690   1.403       .  S
S1688      H1689   1.407       .  S
C1693      C1694   1.407       .  A
C1693      C1698   1.424       .  A
C1694      C1695   1.400       .  A
C1694      H1703   1.083       .  S
C1695      C1696   1.414       .  A
C1695      S1699   1.805       .  S
C1696      C1697   1.401       .  A
C1697      C1698   1.399       .  A
C1697      H1704   1.084       .  S
C1698      S1700   1.802       .  S
S1699      H1702   1.407       .  S
S1700      H1701   1.408       .  S
C1705      C2322   1.404       .  A
C1705      C2326   1.410       .  A
C1706      C2321   1.404       .  A
C1706      C1707   1.408   1_565  A
C1706      H2331   1.084       .  S
C1707      C1708   1.419       .  A
C1707      S1711   1.800       .  S
C1708      C1709   1.407       .  A
C1709      C1710   1.392       .  A
C1709      H1716   1.084       .  S
C1710      C2321   1.410   1_545  A
C1710      S1712   1.807       .  S
S1711      H1714   1.407       .  S
S1712      H2329   1.406       .  S
H1713      S2328   1.406       .  S
H1715      C2322   1.084       .  S
C1717      C1718   1.404       .  A
C1717      C1722   1.407       .  A
C1718      C1719   1.402       .  A
C1718      H1727   1.084       .  S
C1719      C1720   1.415       .  A
C1719      S1723   1.802       .  S
C1720      C1721   1.407       .  A
C1721      C1722   1.391       .  A
C1721      H1728   1.084       .  S
C1722      S1724   1.803       .  S
S1723      H1726   1.406       .  S
S1724      H1725   1.406       .  S
C1729      C1730   1.404       .  A
C1729      C1734   1.414       .  A
C1730      C1731   1.398       .  A
C1730      H1739   1.084   1_545  S
C1731      C1732   1.414       .  A
C1731      S1735   1.804       .  S
C1732      C1733   1.404       .  A
C1733      C1734   1.400       .  A
C1733      H1740   1.084       .  S
C1734      S1736   1.802   1_554  S
S1735      H1738   1.407       .  S
S1736      H1737   1.405       .  S
C1741      C1742   1.410       .  A
C1741      C1746   1.418       .  A
C1742      C1743   1.402       .  A
C1742      H2367   1.084       .  S
C1743      C1744   1.414       .  A
C1743      S2363   1.803       .  S
C1744      C1745   1.406       .  A
C1745      C1746   1.403       .  A
C1745      H1752   1.083       .  S
C1746      S1748   1.802       .  S
S1747      C2359   1.803   1_545  S
S1747      H1750   1.403       .  S
S1748      H1749   1.405       .  S
H1751      C2358   1.084   1_545  S
C1753      C2370   1.402       .  A
C1753      C1758   1.410       .  A
C1754      C2369   1.402   1_545  A
C1754      C1755   1.398       .  A
C1754      H1763   1.083       .  S
C1755      C2372   1.419   1_545  A
C1755      S1759   1.797       .  S
C1756      C2371   1.419       .  A
C1756      C1757   1.411       .  A
C1756      C1892   1.501       .  S
C1757      C1758   1.404       .  A
C1757      H1764   1.082       .  S
C1758      S1760   1.807       .  S
S1759      H1762   1.407       .  S
S1760      H1761   1.407       .  S
C1765      C1766   1.411       .  A
C1765      C1770   1.418       .  A
C1766      C1767   1.404       .  A
C1766      H1775   1.083       .  S
C1767      C1768   1.416       .  A
C1767      S1771   1.804       .  S
C1768      C1769   1.403       .  A
C1769      C1770   1.398       .  A
C1769      H1776   1.083       .  S
C1770      S1772   1.798       .  S
S1771      H1774   1.405       .  S
S1772      H1773   1.407       .  S
C1777      C1778   1.410       .  A
C1777      C1782   1.422       .  A
C1778      C1779   1.399       .  A
C1778      H1787   1.082       .  S
C1779      C1780   1.411       .  A
C1779      S1783   1.802       .  S
C1780      C1781   1.403       .  A
C1781      C1782   1.404       .  A
C1781      H1788   1.084       .  S
C1782      S1784   1.804       .  S
S1783      H1786   1.406       .  S
S1784      H1785   1.407       .  S
C1789      C1790   1.404       .  A
C1789      C1794   1.408       .  A
C1790      C1791   1.408       .  A
C1790      H1799   1.084       .  S
C1791      C1792   1.417       .  A
C1791      S1795   1.803       .  S
C1792      C1793   1.408       .  A
C1793      C1794   1.404       .  A
C1793      H1800   1.083       .  S
C1794      S1796   1.808       .  S
S1795      H1798   1.407       .  S
S1796      H1797   1.407       .  S
C1801      C1802   1.409       .  A
C1801      C1806   1.421       .  A
C1802      C1803   1.394       .  A
C1802      H1811   1.083       .  S
C1803      C1804   1.412       .  A
C1803      S1807   1.806       .  S
C1804      C1805   1.405       .  A
C1805      C1806   1.406       .  A
C1805      H1812   1.084       .  S
C1806      S1808   1.799       .  S
S1807      H1810   1.407       .  S
S1808      H1809   1.408       .  S
C1813      C1814   1.404       .  A
C1813      C1818   1.411       .  A
C1814      C1815   1.410       .  A
C1814      H1823   1.084       .  S
C1815      C1816   1.420       .  A
C1815      S1819   1.800       .  S
C1816      C1817   1.407       .  A
C1817      C1818   1.396       .  A
C1817      H1824   1.084       .  S
C1818      S1820   1.806       .  S
S1819      H1822   1.407       .  S
S1820      H1821   1.406       .  S
C1825      C2442   1.408       .  A
C1825      C1830   1.420       .  A
C1825      C1853   1.500       .  S
C1826      C2441   1.408       .  A
C1826      C1827   1.405   1_545  A
C1826      H1835   1.083       .  S
C1827      C2444   1.413       .  A
C1827      S1831   1.804   1_565  S
C1828      C2443   1.413       .  A
C1828      C1829   1.399       .  A
C1829      C1830   1.398       .  A
C1829      H1836   1.081   1_655  S
C1830      S1832   1.805       .  S
S1831      H1834   1.403   1_545  S
S1832      H1833   1.407       .  S
C1837      C1838   1.398       .  A
C1837      C1842   1.413       .  A
C1838      C1839   1.398       .  A
C1838      H1847   1.084       .  S
C1839      C1840   1.420       .  A
C1839      S1843   1.803       .  S
C1840      C1841   1.404       .  A
C1841      C1842   1.401       .  A
C1841      H1848   1.084       .  S
C1842      S1844   1.805       .  S
S1843      H1846   1.407       .  S
S1844      H2461   1.405       .  S
H1845      S2460   1.405   1_545  S
C1849      C1854   1.391       .  A
C1849      C2453   1.477       .  S
C1850      C1851   1.417       .  A
C1850      H1855   1.077       .  S
C1851      C1852   1.424       .  A
C1851      C2060   1.521       .  S
C1852      C1853   1.417       .  A
C1852      H1856   1.079       .  S
C1854      H1857   1.083       .  S
O1858     Ni1866   1.931       .  S
O1858      C1868   1.285       .  A
O1859     Ni1866   1.932       .  S
O1859      C1869   1.283       .  A
O1860     Ni1866   1.916       .  S
O1860      C1870   1.279       .  A
O1861     Ni1866   1.911       .  S
O1861      C1871   1.281       .  A
O1862     Ni1867   1.937       .  S
O1862      C1871   1.285       .  A
O1863     Ni1867   1.937       .  S
O1863      C1870   1.284       .  A
O1864     Ni1867   1.907       .  S
O1864      C1869   1.281       .  A
O1865     Ni1867   1.904       .  S
O1865      C1868   1.278       .  A
Ni1866    Ni1867   2.383       .  S
C1868      C2456   1.483       .  S
C1869      C2417   1.498       .  S
C1870      C2405   1.480       .  S
C1871      C2432   1.496       .  S
C1872      C1873   1.400       .  A
C1872      C1877   1.399       .  A
C1872      C2429   1.485       .  S
C1873      C1874   1.411       .  A
C1873      H1878   1.080       .  S
C1874      C1875   1.414       .  A
C1874      C2051   1.509       .  S
C1875      C1876   1.413       .  A
C1875      H1879   1.080       .  S
C1876      C1877   1.410       .  A
C1876      C2393   1.505       .  S
C1877      H1880   1.081       .  S
C1881      C1882   1.399       .  A
C1881      C1886   1.402       .  A
C1881      C2420   1.487       .  S
C1882      C1883   1.407       .  A
C1882      H1887   1.083       .  S
C1883      C1884   1.413       .  A
C1883      C2381   1.502       .  S
C1884      C1885   1.416       .  A
C1884      H1888   1.080       .  S
C1885      C1886   1.411       .  A
C1885      C2028   1.510       .  S
C1886      H1889   1.080       .  S
C1890      C1891   1.397       .  A
C1890      C2408   1.497       .  S
C1891      H1896   1.083       .  S
C1892      C1893   1.410       .  A
C1893      C1894   1.416       .  A
C1893      H1897   1.079       .  S
C1894      C1895   1.421       .  A
C1894      C2017   1.519       .  S
C1895      H1898   1.077       .  S
C1899      C1904   1.408   1_554  A
C1899      C2345   1.486       .  S
C1900      C1901   1.399   1_554  A
C1900      C2369   1.492       .  S
C1901      C1902   1.401       .  A
C1901      H1906   1.084       .  S
C1902      C1903   1.420       .  A
C1902      C2333   1.478       .  S
C1903      C2360   1.499       .  S
C1904      H1905   1.084   1_556  S
C1907      C1908   1.394       .  A
C1907      C1912   1.399       .  A
C1907      C2321   1.479       .  S
C1908      C1909   1.407       .  A
C1908      H1913   1.084       .  S
C1909      C1910   1.414       .  A
C1909      C2357   1.501       .  S
C1910      C1911   1.420       .  A
C1910      H1914   1.080       .  S
C1911      C1912   1.411       .  A
C1911      C1990   1.512       .  S
C1912      H1915   1.079       .  S
C1916      C1917   1.395       .  A
C1916      C1921   1.394       .  A
C1916      C2312   1.486       .  S
C1917      C1918   1.411       .  A
C1917      H1922   1.082       .  S
C1918      C1919   1.423       .  A
C1918      C2297   1.518       .  S
C1919      C1920   1.424       .  A
C1919      H1923   1.079       .  S
C1920      C1921   1.409       .  A
C1920      C1983   1.514       .  S
C1921      H1924   1.078       .  S
O1925     Ni1933   1.929       .  S
O1925      C1935   1.285       .  A
O1926     Ni1933   1.929       .  S
O1926      C1936   1.284       .  A
O1927     Ni1933   1.899       .  S
O1927      C1937   1.279       .  A
O1928     Ni1933   1.897       .  S
O1928      C1938   1.278       .  A
O1929     Ni1934   1.943       .  S
O1929      C1938   1.286       .  A
O1930     Ni1934   1.937       .  S
O1930      C1937   1.285       .  A
O1931     Ni1934   1.904       .  S
O1931      C1936   1.278       .  A
O1932     Ni1934   1.906       .  S
O1932      C1935   1.276       .  A
Ni1933    Ni1934   2.378       .  S
C1935      C2309   1.495       .  S
C1936      C2285   1.487       .  S
C1937      C2324   1.490       .  S
C1938      C2273   1.499       .  S
C1939      C1940   1.399       .  A
C1939      C1944   1.392       .  A
C1939      C2288   1.477       .  S
C1940      C1941   1.416       .  A
C1940      H1945   1.079       .  S
C1941      C1942   1.419       .  A
C1941      C1999   1.516       .  S
C1942      C1943   1.415       .  A
C1942      H1946   1.079       .  S
C1943      C1944   1.400       .  A
C1943      C2261   1.491       .  S
C1944      H1947   1.084       .  S
C1948      C1949   1.403       .  A
C1948      C1953   1.397       .  A
C1948      C2276   1.488       .  S
C1949      C1950   1.414       .  A
C1949      H1954   1.078       .  S
C1950      C1951   1.416       .  A
C1950      C2010   1.516       .  S
C1951      C1952   1.410       .  A
C1951      H1955   1.077       .  S
C1952      C1953   1.405       .  A
C1952      C2252   1.499       .  S
C1953      H1956   1.081       .  S
C1957      C1962   1.409   1_554  A
C1957      C2225   1.491       .  S
C1958      C1959   1.405   1_554  A
C1958      C2384   1.499       .  S
C1959      H1964   1.084       .  S
C1960      C1961   1.414       .  A
C1960      C2237   1.479       .  S
C1961      C1962   1.405       .  A
C1961      C2300   1.494       .  S
C1962      H1963   1.084       .  S
O1965     Ni1973   1.932       .  S
O1965      C1975   1.285       .  A
O1966     Ni1973   1.931       .  S
O1966      C1976   1.285       .  A
O1967     Ni1973   1.893       .  S
O1967      C1977   1.277       .  A
O1968     Ni1973   1.896       .  S
O1968      C1978   1.277       .  A
O1969     Ni1974   1.943       .  S
O1969      C1978   1.286       .  A
O1970     Ni1974   1.945       .  S
O1970      C1977   1.287       .  A
O1971     Ni1974   1.906       .  S
O1971      C1976   1.278       .  A
O1972     Ni1974   1.899       .  S
O1972      C1975   1.277       .  A
Ni1973    Ni1974   2.381       .  S
C1975      C2216   1.479       .  S
C1976      C2189   1.491       .  S
C1977      C2201   1.496       .  S
C1978      C2177   1.495       .  S
C1979      C1980   1.392       .  A
C1979      C1984   1.407       .  A
C1979      C2204   1.493       .  S
C1980      C1981   1.396       .  A
C1980      H1985   1.085       .  S
C1981      C1982   1.409       .  A
C1981      C2336   1.484       .  S
C1982      C1983   1.414       .  A
C1982      H1986   1.079       .  S
C1983      C1984   1.422       .  A
C1984      H1987   1.080       .  S
C1988      C1989   1.402       .  A
C1988      C1993   1.391       .  A
C1989      C1990   1.419       .  A
C1989      H1994   1.079       .  S
C1990      C1991   1.416       .  A
C1991      C1992   1.411       .  A
C1991      H1995   1.080       .  S
C1992      C1993   1.401       .  A
C1992      C2240   1.495       .  S
C1993      H1996   1.083       .  S
C1997      C1998   1.399       .  A
C1997      C2002   1.389       .  A
C1997      C2213   1.474       .  S
C1998      C1999   1.418       .  A
C1998      H2003   1.079       .  S
C1999      C2000   1.421       .  A
C2000      C2001   1.413       .  A
C2000      H2004   1.080       .  S
C2001      C2002   1.396       .  A
C2001      C2165   1.481       .  S
C2002      H2005   1.085       .  S
C2006      C2007   1.396       .  A
C2006      C2011   1.406       .  A
C2007      C2008   1.403       .  A
C2007      H2012   1.084       .  S
C2008      C2009   1.406       .  A
C2008      C2156   1.494       .  S
C2009      C2010   1.417       .  A
C2009      H2013   1.075       .  S
C2010      C2011   1.416       .  A
C2011      H2014   1.078       .  S
C2015      C2020   1.393       .  A
C2015      C2141   1.480       .  S
C2016      C2017   1.414       .  A
C2016      H2021   1.078       .  S
C2017      C2018   1.423       .  A
C2018      C2019   1.414       .  A
C2018      H2022   1.079       .  S
C2020      H2023   1.084       .  S
C2024      C2025   1.391       .  A
C2024      C2029   1.402       .  A
C2024      C2129   1.474       .  S
C2025      C2026   1.397       .  A
C2025      H2030   1.084       .  S
C2026      C2027   1.410       .  A
C2026      C2348   1.482       .  S
C2027      C2028   1.416       .  A
C2027      H2031   1.081       .  S
C2028      C2029   1.416       .  A
C2029      H2032   1.080       .  S
O2033     Ni2041   1.935       .  S
O2033      C2043   1.285       .  A
O2034     Ni2041   1.934       .  S
O2034      C2044   1.286       .  A
O2035     Ni2041   1.898       .  S
O2035      C2045   1.275       .  A
O2036     Ni2041   1.890       .  S
O2036      C2046   1.275       .  A
O2037     Ni2042   1.941       .  S
O2037      C2046   1.286       .  A
O2038     Ni2042   1.938       .  S
O2038      C2045   1.287       .  A
O2039     Ni2042   1.898       .  S
O2039      C2044   1.276       .  A
O2040     Ni2042   1.895       .  S
O2040      C2043   1.275       .  A
Ni2041    Ni2042   2.386       .  S
C2043      C2120   1.469       .  S
C2044      C2144   1.484       .  S
C2045      C2108   1.492       .  S
C2046      C2132   1.477       .  S
C2047      C2048   1.391       .  A
C2047      C2105   1.480       .  S
C2048      H2053   1.082       .  S
C2049      C2050   1.415       .  A
C2050      C2051   1.418       .  A
C2050      H2054   1.079       .  S
C2051      C2052   1.413       .  A
C2052      H2055   1.079       .  S
C2056      C2057   1.387       .  A
C2056      C2061   1.402       .  A
C2056      C2117   1.478       .  S
C2057      C2058   1.392       .  A
C2057      H2062   1.085       .  S
C2058      C2059   1.410       .  A
C2058      C2081   1.481       .  S
C2059      C2060   1.422       .  A
C2059      H2063   1.079       .  S
C2060      C2061   1.423       .  A
C2061      H2064   1.078       .  S
C2065      C2070   1.401       .  A
C2065      C2096   1.480       .  S
C2066      C2067   1.404       .  A
C2066      C2444   1.489       .  S
C2067      H2072   1.083       .  S
C2068      C2069   1.423       .  A
C2068      C2153   1.493       .  S
C2069      C2264   1.489       .  S
C2070      H2071   1.084       .  S
C2073      C2074   1.422       .  A
C2073      C2078   1.403       .  A
C2073      C2084   1.487       .  S
C2074      C2075   1.404       .  A
C2074      C2396   1.494       .  S
C2075      C2076   1.407       .  A
C2075      H2080   1.084       .  S
C2076      C2077   1.421       .  A
C2076      C2168   1.492       .  S
C2077      C2078   1.402       .  A
C2077      C2249   1.489       .  S
C2078      H2079   1.084       .  S
C2081      C2082   1.403       .  A
C2081      C2086   1.414       .  A
C2082      C2083   1.404       .  A
C2082      H2091   1.084       .  S
C2083      C2084   1.417       .  A
C2083      S2087   1.806       .  S
C2084      C2085   1.402       .  A
C2085      C2086   1.393       .  A
C2085      H2092   1.084       .  S
C2086      S2088   1.805       .  S
S2087      H2090   1.404       .  S
S2088      H2089   1.407       .  S
C2093      C2098   1.426       .  A
C2094      C2095   1.390       .  A
C2094      H2103   1.081       .  S
C2096      C2097   1.401       .  A
C2097      C2098   1.406       .  A
C2097      H2104   1.084       .  S
C2098      S2100   1.803       .  S
S2099      H2102   1.404   1_545  S
S2100      H2101   1.407       .  S
C2105      C2106   1.396       .  A
C2105      C2110   1.415       .  A
C2106      C2107   1.403       .  A
C2106      H2115   1.083       .  S
C2107      C2108   1.425       .  A
C2107      S2111   1.811       .  S
C2108      C2109   1.405       .  A
C2109      C2110   1.400       .  A
C2109      H2116   1.083       .  S
C2110      S2112   1.805       .  S
S2111      H2114   1.407       .  S
S2112      H2113   1.406       .  S
C2117      C2118   1.402       .  A
C2117      C2122   1.413       .  A
C2118      C2119   1.397       .  A
C2118      H2127   1.083       .  S
C2119      C2120   1.409       .  A
C2119      S2123   1.810       .  S
C2120      C2121   1.403       .  A
C2121      C2122   1.404       .  A
C2121      H2128   1.084       .  S
C2122      S2124   1.803       .  S
S2123      H2126   1.407       .  S
S2124      H2125   1.406       .  S
C2129      C2130   1.398       .  A
C2129      C2134   1.414       .  A
C2130      C2131   1.399       .  A
C2130      H2139   1.083       .  S
C2131      C2132   1.416       .  A
C2131      S2135   1.811       .  S
C2132      C2133   1.403       .  A
C2133      C2134   1.403       .  A
C2133      H2140   1.084       .  S
C2134      S2136   1.804       .  S
S2135      H2138   1.407       .  S
S2136      H2137   1.405       .  S
C2141      C2142   1.397       .  A
C2141      C2146   1.416       .  A
C2142      C2143   1.394       .  A
C2142      H2151   1.084       .  S
C2143      C2144   1.421       .  A
C2143      S2147   1.803       .  S
C2144      C2145   1.405       .  A
C2145      C2146   1.403       .  A
C2145      H2152   1.084       .  S
S2147      H2150   1.408       .  S
S2148      H2149   1.406   1_455  S
C2153      C2154   1.405       .  A
C2153      C2158   1.411       .  A
C2154      C2155   1.399       .  A
C2154      H2163   1.083       .  S
C2155      C2156   1.418       .  A
C2155      S2159   1.804       .  S
C2156      C2157   1.409       .  A
C2157      C2158   1.403       .  A
S2159      H2162   1.407       .  S
S2160      H2161   1.406       .  S
C2165      C2166   1.403       .  A
C2165      C2170   1.413       .  A
C2166      C2167   1.403       .  A
C2166      H2175   1.084       .  S
C2167      C2168   1.417       .  A
C2167      S2171   1.806       .  S
C2168      C2169   1.405       .  A
C2169      C2170   1.398       .  A
C2169      H2176   1.084       .  S
C2170      S2172   1.804       .  S
S2171      H2174   1.404       .  S
S2172      H2173   1.407       .  S
C2177      C2178   1.410       .  A
C2177      C2182   1.417       .  A
C2178      C2179   1.395       .  A
C2178      H2187   1.083       .  S
C2179      C2180   1.411   1_655  A
C2180      C2181   1.408       .  A
C2181      C2182   1.407   1_455  A
C2181      H2188   1.084       .  S
C2182      S2184   1.798       .  S
S2183      H2186   1.407       .  S
S2184      H2185   1.407       .  S
C2189      C2190   1.411       .  A
C2189      C2194   1.416       .  A
C2190      C2191   1.400       .  A
C2190      H2199   1.083       .  S
C2191      C2192   1.408   1_655  A
C2191      S2195   1.804       .  S
C2192      C2193   1.405       .  A
C2193      C2194   1.401   1_455  A
C2194      S2196   1.802       .  S
S2195      H2198   1.406       .  S
S2196      H2197   1.408       .  S
C2201      C2202   1.412       .  A
C2201      C2206   1.416       .  A
C2202      C2203   1.397       .  A
C2202      H2211   1.083       .  S
C2203      C2204   1.412       .  A
C2203      S2207   1.805       .  S
C2204      C2205   1.411       .  A
C2205      C2206   1.404       .  A
C2205      H2212   1.084       .  S
C2206      S2208   1.800       .  S
S2207      H2210   1.407       .  S
S2208      H2209   1.408       .  S
C2213      C2214   1.403       .  A
C2213      C2218   1.409       .  A
C2214      C2215   1.401       .  A
C2214      H2223   1.084       .  S
C2215      C2216   1.414       .  A
C2215      S2219   1.802       .  S
C2216      C2217   1.407       .  A
C2217      C2218   1.397       .  A
C2217      H2224   1.084       .  S
C2218      S2220   1.805       .  S
S2219      H2222   1.407       .  S
S2220      H2221   1.405       .  S
C2225      C2230   1.411       .  A
C2226      C2227   1.405       .  A
C2226      H2235   1.084       .  S
C2227      S2231   1.802       .  S
C2228      C2229   1.409       .  A
C2229      C2230   1.398       .  A
C2229      H2236   1.084       .  S
C2230      S2232   1.803       .  S
S2231      H2234   1.406       .  S
S2232      H2233   1.406       .  S
C2237      C2238   1.402       .  A
C2237      C2242   1.407       .  A
C2238      C2239   1.401       .  A
C2238      H2247   1.084       .  S
C2239      C2240   1.419       .  A
C2239      S2243   1.803       .  S
C2240      C2241   1.410       .  A
C2241      C2242   1.394       .  A
C2241      H2248   1.082       .  S
C2242      S2244   1.803       .  S
S2243      H2246   1.407       .  S
S2244      H2245   1.402       .  S
C2249      C2250   1.402       .  A
C2249      C2254   1.410       .  A
C2250      C2251   1.402       .  A
C2250      H2259   1.084       .  S
C2251      C2252   1.420       .  A
C2251      S2255   1.804       .  S
C2252      C2253   1.409       .  A
C2253      C2254   1.397       .  A
C2253      H2260   1.082       .  S
C2254      S2256   1.801       .  S
S2255      H2258   1.407       .  S
S2256      H2257   1.407       .  S
C2261      C2262   1.407       .  A
C2261      C2266   1.416       .  A
C2262      C2263   1.397       .  A
C2262      H2271   1.084       .  S
C2263      C2264   1.412       .  A
C2263      S2267   1.804       .  S
C2264      C2265   1.405       .  A
C2265      C2266   1.404       .  A
S2267      H2270   1.405       .  S
S2268      H2269   1.406       .  S
C2273      C2274   1.411       .  A
C2273      C2278   1.420       .  A
C2274      C2275   1.394       .  A
C2274      H2283   1.083       .  S
C2275      C2276   1.411       .  A
C2275      S2279   1.807       .  S
C2276      C2277   1.406       .  A
C2277      C2278   1.408       .  A
C2277      H2284   1.083       .  S
C2278      S2280   1.798       .  S
S2279      H2282   1.407       .  S
S2280      H2281   1.407       .  S
C2285      C2286   1.409       .  A
C2285      C2290   1.419       .  A
C2286      C2287   1.405       .  A
C2286      H2295   1.083       .  S
C2289      C2290   1.394       .  A
C2289      H2296   1.085       .  S
C2290      S2292   1.804       .  S
S2291      H2294   1.406       .  S
S2292      H2293   1.408       .  S
C2297      C2298   1.415       .  A
C2297      C2302   1.426       .  A
C2298      C2299   1.396       .  A
C2298      H2307   1.081       .  S
C2299      C2300   1.406       .  A
C2299      S2303   1.804       .  S
C2300      C2301   1.405       .  A
C2301      C2302   1.412       .  A
C2301      H2308   1.083       .  S
C2302      S2304   1.802       .  S
S2303      H2306   1.403       .  S
S2304      H2305   1.407       .  S
C2309      C2310   1.408       .  A
C2309      C2314   1.424       .  A
C2310      C2311   1.400       .  A
C2310      H2319   1.083       .  S
C2311      C2312   1.414       .  A
C2311      S2315   1.805       .  S
C2312      C2313   1.401       .  A
C2313      C2314   1.399       .  A
C2313      H2320   1.084       .  S
C2314      S2316   1.802       .  S
S2315      H2318   1.407       .  S
S2316      H2317   1.408       .  S
C2322      C2323   1.408       .  A
C2323      C2324   1.419       .  A
C2323      S2327   1.800       .  S
C2324      C2325   1.407       .  A
C2325      C2326   1.392       .  A
C2325      H2332   1.084       .  S
C2326      S2328   1.807       .  S
S2327      H2330   1.407       .  S
C2333      C2334   1.404       .  A
C2333      C2338   1.407       .  A
C2334      C2335   1.402       .  A
C2334      H2343   1.084       .  S
C2335      C2336   1.415       .  A
C2335      S2339   1.802       .  S
C2336      C2337   1.407       .  A
C2337      C2338   1.391       .  A
C2337      H2344   1.084       .  S
C2338      S2340   1.803       .  S
S2339      H2342   1.406       .  S
S2340      H2341   1.406       .  S
C2345      C2346   1.404       .  A
C2345      C2350   1.414       .  A
C2346      C2347   1.398       .  A
C2346      H2355   1.084       .  S
C2347      C2348   1.414       .  A
C2347      S2351   1.804       .  S
C2348      C2349   1.404       .  A
C2349      C2350   1.400       .  A
C2349      H2356   1.084       .  S
C2350      S2352   1.802   1_554  S
S2351      H2354   1.407       .  S
S2352      H2353   1.405       .  S
C2357      C2358   1.410       .  A
C2357      C2362   1.418       .  A
C2358      C2359   1.402       .  A
C2359      C2360   1.414       .  A
C2360      C2361   1.406       .  A
C2361      C2362   1.403       .  A
C2361      H2368   1.083       .  S
C2362      S2364   1.802       .  S
S2363      H2366   1.403       .  S
S2364      H2365   1.405       .  S
C2369      C2374   1.410       .  A
C2370      C2371   1.398       .  A
C2370      H2379   1.083       .  S
C2371      S2375   1.797       .  S
C2372      C2373   1.411       .  A
C2373      C2374   1.404       .  A
C2373      H2380   1.082       .  S
C2374      S2376   1.807       .  S
S2375      H2378   1.407       .  S
S2376      H2377   1.407       .  S
C2381      C2382   1.411       .  A
C2381      C2386   1.418       .  A
C2382      C2383   1.404       .  A
C2382      H2391   1.083       .  S
C2383      C2384   1.416       .  A
C2383      S2387   1.804       .  S
C2384      C2385   1.403       .  A
C2385      C2386   1.398       .  A
C2385      H2392   1.083       .  S
C2386      S2388   1.798       .  S
S2387      H2390   1.405       .  S
S2388      H2389   1.407       .  S
C2393      C2394   1.410       .  A
C2393      C2398   1.422       .  A
C2394      C2395   1.399       .  A
C2394      H2403   1.082       .  S
C2395      C2396   1.411       .  A
C2395      S2399   1.802       .  S
C2396      C2397   1.403       .  A
C2397      C2398   1.404       .  A
C2397      H2404   1.084       .  S
C2398      S2400   1.804       .  S
S2399      H2402   1.406       .  S
S2400      H2401   1.407       .  S
C2405      C2406   1.404       .  A
C2405      C2410   1.408       .  A
C2406      C2407   1.408       .  A
C2406      H2415   1.084       .  S
C2407      C2408   1.417       .  A
C2407      S2411   1.803   1_565  S
C2408      C2409   1.408       .  A
C2409      C2410   1.404       .  A
C2409      H2416   1.083       .  S
C2410      S2412   1.808       .  S
S2411      H2414   1.407       .  S
S2412      H2413   1.407       .  S
C2417      C2418   1.409       .  A
C2417      C2422   1.421       .  A
C2418      C2419   1.394       .  A
C2418      H2427   1.083       .  S
C2419      C2420   1.412       .  A
C2419      S2423   1.806       .  S
C2420      C2421   1.405       .  A
C2421      C2422   1.406       .  A
C2421      H2428   1.084       .  S
C2422      S2424   1.799       .  S
S2423      H2426   1.407       .  S
S2424      H2425   1.408       .  S
C2429      C2430   1.404       .  A
C2429      C2434   1.411       .  A
C2430      C2431   1.410       .  A
C2430      H2439   1.084       .  S
C2431      C2432   1.420       .  A
C2431      S2435   1.800       .  S
C2432      C2433   1.407       .  A
C2433      C2434   1.396       .  A
C2433      H2440   1.084       .  S
C2434      S2436   1.806       .  S
S2435      H2438   1.407       .  S
S2436      H2437   1.406       .  S
C2441      C2446   1.420   1_545  A
C2442      C2443   1.405       .  A
C2442      H2451   1.083       .  S
C2443      S2447   1.804       .  S
C2444      C2445   1.399       .  A
C2445      C2446   1.398       .  A
C2445      H2452   1.081   1_655  S
C2446      S2448   1.805       .  S
S2447      H2450   1.403       .  S
S2448      H2449   1.407   1_565  S
C2453      C2454   1.398       .  A
C2453      C2458   1.413       .  A
C2454      C2455   1.398       .  A
C2454      H2463   1.084       .  S
C2455      C2456   1.420       .  A
C2455      S2459   1.803       .  S
C2456      C2457   1.404       .  A
C2457      C2458   1.401       .  A
C2457      H2464   1.084       .  S
C2458      S2460   1.805       .  S
S2459      H2462   1.407       .  S
