geometry optimzed in LAMMPS
_audit_creation_date              2020-11-30 
_audit_creation_method            'lammps2cif' 
_symmetry_space_group_name_H-M    'P1' 
_symmetry_Int_Tables_number       1 
_symmetry_cell_setting            triclinic 
loop_ 
_symmetry_equiv_pos_as_xyz 
  x,y,z 
_cell_length_a                    36.02670010893507 
_cell_length_b                    31.534322536310924 
_cell_length_c                    27.992347251307468 
_cell_angle_alpha                 89.9097175148897 
_cell_angle_beta                  89.59191567499131 
_cell_angle_gamma                 117.65982154784807 
loop_ 
_atom_site_label 
_atom_site_type_symbol 
_atom_site_fract_x 
_atom_site_fract_y 
_atom_site_fract_z 
_atom_site_charge 
C1          C  0.30514702  0.17155503  0.03548066    -0.02770
C2          C  0.31127042  0.17905987  0.25253246    -0.02770
C3          C  0.18055715  0.36459277  0.74970589    -0.02770
C4          C  0.18342920  0.37214312  0.53138203    -0.02770
O5          O  0.97046202  0.02806160  0.04017472    -0.75580
O6          O  0.40391466  0.48614583  0.01202773    -0.54490
C7          C  0.43024610  0.00916184  0.04467511     0.78150
O8          O  0.05716850  0.16482673  0.84391077    -0.60180
O9          O  0.10523721  0.13765760  0.83229907    -0.53210
C10         C  0.09232110  0.16932460  0.82740100     0.70160
O11         O  0.43830021  0.10839050  0.93654220    -0.74740
O12         O  0.38624322  0.03331779  0.95133525    -0.55300
C13         C  0.40183887  0.07907642  0.95350198     0.76170
O14         O  0.10305292  0.07263769  0.98735412    -0.59880
O15         O  0.12951064  0.08258680  0.91145503    -0.53000
C16         C  0.13358941  0.08556894  0.95716819     0.72760
Zr17       Zr  0.02648787  0.03543846  0.98581066     2.54710
O18         O  0.05479787  0.09594102  0.04782652    -0.80450
O19         O  0.03244789  0.97862615  0.04024692    -0.93870
Zr20       Zr  0.49836034  0.11003791  0.89359477     2.64680
O21         O  0.03262749  0.17659204  0.94865125    -0.98820
O22         O  0.47345462  0.15627581  0.84609312    -0.80880
O23         O  0.47463811  0.05423803  0.95660688    -0.84240
O24         O  0.05158115  0.09246406  0.92265026    -2.18950
O25         O  0.04994867  0.42681038  0.86094476    -0.67630
O26         O  0.09988669  0.00107592  0.83931542    -0.52190
C27         C  0.08604614  0.95533372  0.84317558     0.71140
O28         O  0.38419990  0.46622822  0.79974403    -0.60540
O29         O  0.35712769  0.45457834  0.87492539    -0.52510
C30         C  0.35319785  0.45264444  0.82903393     0.72940
O31         O  0.51561340  0.03680988  0.74375970    -0.71930
O32         O  0.08125255  0.06271388  0.77437468    -0.50610
C33         C  0.05561791  0.05516073  0.74006155     0.74330
O34         O  0.42481956  0.36729805  0.93332337    -0.67260
O35         O  0.38169156  0.39904565  0.95527517    -0.54460
C36         C  0.39143038  0.36458690  0.95302345     0.72710
Zr37       Zr  0.48814548  0.42787905  0.89514907     2.77540
O38         O  0.45929000  0.36256425  0.83796827    -0.98010
O39         O  0.00859246  0.38328222  0.95085619    -0.78830
Zr40       Zr  0.46007349  0.00295991  0.80275875     2.70070
O41         O  0.44175323  0.43883172  0.74502739    -0.80080
O42         O  0.44242349  0.05117971  0.74845643    -0.99160
Zr43       Zr  0.41722789  0.48247946  0.92852650     2.21500
Zr44       Zr  0.06919248  0.05413899  0.85916400     2.11130
O45         O  0.01182040  0.48254308  0.83017995    -2.47850
O46         O  0.43505002  0.44509557  0.86507309    -0.79870
O47         O  0.04587863  0.99836392  0.92380980    -0.72070
O48         O  0.44058438  0.03962183  0.86486074    -2.33020
O49         O  0.46962569  0.46349588  0.95935803    -2.29230
O50         O  0.01677344  0.07366762  0.83066922    -0.73830
H51         H  0.07566174  0.12156471  0.93234202     0.78170
H52         H  0.41859366  0.04687692  0.85462246     0.79260
H53         H  0.02056403  0.46938471  0.80386781     0.81480
H54         H  0.45912953  0.44200155  0.98640437     0.79090
H55         H  0.46160719  0.13678960  0.81713849     0.42130
H56         H  0.46651340  0.08367455  0.75013251     0.41100
H57         H  0.42750389  0.40906972  0.76422322     0.40770
H58         H  0.47839503  0.37410611  0.80994463     0.38710
H59         H  0.03328941  0.40809302  0.96744911     0.41840
H60         H  0.00772531  0.46789771  0.06172225     0.36620
H61         H  0.05012412  0.12262707  0.03583864     0.42740
H62         H  0.06141837  0.19538015  0.93577692     0.39160
H63         H  0.46454334  0.33710643  0.85219667     0.44070
H64         H  0.05657626  0.99857038  0.06072263     0.42800
H65         H  0.01898540  0.19707967  0.94289893     0.42930
H66         H  0.44450855  0.03967253  0.71615211     0.43290
O67         O  0.44299269  0.11353997  0.34277238    -0.75580
O68         O  0.39033209  0.03872146  0.32977462    -0.54490
C69         C  0.40662836  0.08450261  0.32674246     0.78150
O70         O  0.10768247  0.08163792  0.29536321    -0.60180
O71         O  0.13229634  0.09051186  0.37160754    -0.53210
C72         C  0.13738842  0.09459464  0.32588409     0.70160
O73         O  0.97652370  0.03247349  0.24045745    -0.74740
O74         O  0.40995862  0.49109735  0.27005001    -0.55300
C75         C  0.43636102  0.01326048  0.23664494     0.76170
O76         O  0.06168546  0.17482919  0.42845531    -0.59880
O77         O  0.10740439  0.14632339  0.44768724    -0.53000
C78         C  0.09613302  0.17959392  0.44626401     0.72760
Zr79       Zr  0.50000195  0.11559375  0.38937713     2.54710
O80         O  0.03014584  0.18633020  0.33815250    -0.80450
O81         O  0.47148865  0.15349982  0.44392074    -0.93870
Zr82       Zr  0.03151783  0.04394494  0.29702174     2.64680
O83         O  0.05599923  0.11008962  0.24008935    -0.98820
O84         O  0.04312864  0.99396674  0.23882704    -0.80880
O85         O  0.47866491  0.06143785  0.32566811    -0.84240
O86         O  0.05427599  0.09977287  0.36049452    -2.18950
O87         O  0.51507509  0.04116081  0.54031807    -0.67630
O88         O  0.08133430  0.06921302  0.50950086    -0.52190
C89         C  0.05508691  0.06003992  0.54402311     0.71140
O90         O  0.42937667  0.37507032  0.34915381    -0.60540
O91         O  0.38619119  0.40667117  0.32761417    -0.52510
C92         C  0.39596972  0.37241366  0.32970521     0.72940
O93         O  0.05311958  0.43467551  0.42911354    -0.71930
O94         O  0.10160050  0.01055443  0.44848089    -0.50610
C95         C  0.08820523  0.96491872  0.44772914     0.74330
O96         O  0.38550971  0.47447410  0.48289589    -0.67260
O97         O  0.36116376  0.46036133  0.40659076    -0.54460
C98         C  0.35585478  0.45924288  0.45221400     0.72710
Zr99       Zr  0.46116419  0.00793471  0.48029674     2.77540
O100        O  0.44083659  0.43905796  0.53306877    -0.98010
O101        O  0.44113516  0.05033220  0.53930654    -0.78830
Zr102      Zr  0.49309463  0.43495706  0.38805027     2.70070
O103        O  0.46412164  0.36589097  0.44146275    -0.80080
O104        O  0.01871372  0.39518231  0.33222404    -0.99160
Zr105      Zr  0.42197944  0.48902783  0.35376869     2.21500
Zr106      Zr  0.07128004  0.06202488  0.42441049     2.11130
O107        O  0.01408672  0.48936085  0.45283979    -2.47850
O108        O  0.43870689  0.45101522  0.41752763    -0.79870
O109        O  0.01792877  0.08014836  0.45327240    -0.72070
O110        O  0.47531723  0.47092766  0.32354399    -2.33020
O111        O  0.44241846  0.04472308  0.41783284    -2.29230
O112        O  0.05045355  0.00686631  0.35962633    -0.73830
H113        H  0.07820999  0.12929855  0.35087386     0.78170
H114        H  0.46556818  0.44971405  0.29646969     0.79260
H115        H  0.02238692  0.47647539  0.47962231     0.81480
H116        H  0.41992675  0.05148698  0.42750578     0.79090
H117        H  0.04533370  0.46896311  0.25820474     0.42130
H118        H  0.04942013  0.41589937  0.33079030     0.41100
H119        H  0.43935524  0.36647955  0.45635498     0.40770
H120        H  0.46756443  0.44039779  0.54347620     0.38710
H121        H  0.45448761  0.08390358  0.52775906     0.41840
H122        H  0.44172491  0.14082466  0.43485995     0.36620
H123        H  0.01600968  0.20535940  0.34816618     0.42740
H124        H  0.07075202  0.13926810  0.25962144     0.39160
H125        H  0.42961775  0.44726234  0.56202593     0.44070
H126        H  0.48474711  0.18749777  0.43375305     0.42800
H127        H  0.07825415  0.10780379  0.22105529     0.42930
H128        H  0.01514507  0.36605475  0.34943933     0.43290
C129        C  0.07629776  0.03334878  0.61534162    -0.09440
C130        C  0.07078782  0.06946188  0.59241606     0.06750
C131        C  0.06813845  0.10565648  0.61931970    -0.03210
C132        C  0.07061197  0.10491029  0.66887407    -0.07660
C133        C  0.07187017  0.06617043  0.69176790     0.05870
C134        C  0.07483296  0.03036362  0.66496812    -0.02690
Br135      Br  0.56542369  0.47134756  0.69433773    -0.02380
H136        H  0.07565314  0.50386845  0.59484987     0.09780
H137        H  0.06587136  0.13101419  0.68965927     0.07800
Br138      Br  0.05287869  0.15094018  0.59119707    -0.02810
C139        C  0.93890263  0.05880076  0.11449558    -0.09440
C140        C  0.41490436  0.01523871  0.09139019     0.06750
C141        C  0.38546165  0.47597845  0.11811230    -0.03210
C142        C  0.38929439  0.47670480  0.16780474    -0.07660
C143        C  0.42047600  0.01735403  0.18997724     0.05870
C144        C  0.94119744  0.06025868  0.16390915    -0.02690
Br145      Br  0.97524379  0.12058823  0.19395666    -0.02380
H146        H  0.95923943  0.09049381  0.09405847     0.09780
H147        H  0.37027140  0.44469774  0.18841187     0.07800
Br148      Br  0.34153530  0.42070072  0.08900222    -0.02810
C149        C  0.12518956  0.26700362  0.44138049    -0.09440
C150        C  0.12324228  0.22753834  0.46605756     0.06750
C151        C  0.14175749  0.23480831  0.51117603    -0.03210
C152        C  0.15594434  0.27932014  0.53355818    -0.07660
C153        C  0.15947321  0.32046540  0.50900407     0.05870
C154        C  0.14487168  0.31293412  0.46043598    -0.02690
Br155      Br  0.15442851  0.36187702  0.41344617    -0.02380
H156        H  0.11245595  0.26219742  0.40564952     0.09780
H157        H  0.16505453  0.28061311  0.57001029     0.07800
Br158      Br  0.15154056  0.18684432  0.54252588    -0.02810
C159        C  0.09259058  0.40097980  0.49580348    -0.09440
C160        C  0.11359244  0.44489681  0.47165008     0.06750
C161        C  0.15774862  0.46804848  0.47142625    -0.03210
C162        C  0.17965984  0.44549872  0.49143871    -0.07660
C163        C  0.15899678  0.39996540  0.51416000     0.05870
C164        C  0.11422264  0.37906898  0.51762525    -0.02690
Br165      Br  0.07938643  0.32036436  0.55151900    -0.02380
H166        H  0.05867618  0.38344947  0.49813006     0.09780
H167        H  0.21311285  0.46384880  0.48681273     0.07800
Br168      Br  0.19059028  0.02933251  0.44180834    -0.02810
C169        C  0.24189516  0.37409388  0.47451933    -0.09440
C170        C  0.22983665  0.39637779  0.51149137     0.06750
C171        C  0.26228251  0.44048214  0.52919069    -0.03210
C172        C  0.30286671  0.46025607  0.50937208    -0.07660
C173        C  0.31265434  0.43829019  0.47122605     0.05870
C174        C  0.28156159  0.39492649  0.45375944    -0.02690
Br175      Br  0.29161818  0.36003443  0.40325938    -0.02380
H176        H  0.22130574  0.33942217  0.46055382     0.09780
H177        H  0.32695468  0.49361918  0.52347538     0.07800
Br178      Br  0.25468388  0.47748898  0.57933573    -0.02810
C179        C  0.18209749  0.28738920  0.78340100    -0.09440
C180        C  0.15970915  0.30871917  0.76031307     0.06750
C181        C  0.11739219  0.27625492  0.74819257    -0.03210
C182        C  0.09718684  0.23062149  0.76896414    -0.07660
C183        C  0.11803303  0.21390935  0.79965641     0.05870
C184        C  0.16160584  0.24155676  0.80437905    -0.02690
Br185      Br  0.19419429  0.22090733  0.84275880    -0.02380
H186        H  0.21560583  0.30671034  0.78779194     0.09780
H187        H  0.06411594  0.20829217  0.76220972     0.07800
Br188      Br  0.08200393  0.29065058  0.70793492    -0.02810
C189        C  0.12155097  0.36304089  0.80529049    -0.09440
C190        C  0.15711923  0.38967269  0.77599544     0.06750
C191        C  0.17197875  0.44052751  0.77549230    -0.03210
C192        C  0.14920714  0.46096396  0.79851521    -0.07660
C193        C  0.11206778  0.43302882  0.82422394     0.05870
C194        C  0.09961236  0.38349137  0.82903653    -0.02690
Br195      Br  0.05408137  0.33979744  0.86905501    -0.02380
H196        H  0.11084709  0.32569533  0.81255696     0.09780
H197        H  0.16016937  0.49913460  0.79485635     0.07800
Br198      Br  0.21982212  0.48512071  0.73925405    -0.02810
C199        C  0.26188975  0.41595241  0.74173324    -0.09440
C200        C  0.22622726  0.39005797  0.77113157     0.06710
C201        C  0.23415793  0.38989694  0.82129481    -0.03210
C202        C  0.27521447  0.41048039  0.83862551    -0.07660
C203        C  0.31016860  0.43319814  0.80835220     0.05870
C204        C  0.30278352  0.43682127  0.75922455    -0.02690
Br205      Br  0.34592461  0.47131915  0.71253008    -0.02380
H206        H  0.25881513  0.42250656  0.70456544     0.09780
H207        H  0.27969573  0.40802545  0.87656042     0.07800
Br208      Br  0.19185328  0.36048363  0.87011591    -0.02810
C209        C  0.16248922  0.39053053  0.61535768    -0.09440
C210        C  0.18416273  0.37098949  0.58833656     0.06750
C211        C  0.20740828  0.35356918  0.61610778    -0.03210
C212        C  0.20322621  0.35002971  0.66637387    -0.07660
C213        C  0.18069581  0.36888521  0.69313742     0.05870
C214        C  0.15920433  0.38850098  0.66522862    -0.02690
Br215      Br  0.11855177  0.40770858  0.68667234    -0.02380
H216        H  0.14698894  0.40835869  0.59815441     0.09780
H217        H  0.21994395  0.33429246  0.68538136     0.07800
Br218      Br  0.24781486  0.33593303  0.58963321    -0.02810
C219        C  0.23825278  0.17128246  0.25848766    -0.09440
C220        C  0.26486093  0.15142760  0.27228654     0.06750
C221        C  0.24666938  0.11073196  0.30428245    -0.03210
C222        C  0.20504320  0.09304706  0.31983041    -0.07660
C223        C  0.18045307  0.11446084  0.30670634     0.05870
C224        C  0.19724041  0.15381559  0.27551724    -0.02690
Br225      Br  0.16673715  0.18752105  0.25773237    -0.02380
H226        H  0.25008981  0.20195119  0.23463029     0.09780
H227        H  0.19162967  0.06237644  0.34361239     0.07800
Br228      Br  0.27347552  0.07890998  0.33752362    -0.02810
C229        C  0.34444193  0.28790502  0.33898215    -0.09440
C230        C  0.36697115  0.32626337  0.30847334     0.06750
C231        C  0.36513970  0.31837753  0.25899724    -0.03210
C232        C  0.34321914  0.27168578  0.24110361    -0.07660
C233        C  0.32672889  0.23127623  0.27197649     0.05870
C234        C  0.32486019  0.24098545  0.32198396    -0.02690
Br235      Br  0.30373863  0.19459651  0.37268110    -0.02380
H236        H  0.34521644  0.29421502  0.37712425     0.09780
H237        H  0.34182161  0.26783004  0.20285742     0.07800
Br238      Br  0.39621796  0.36950264  0.21491623    -0.02810
C239        C  0.33095400  0.11120678  0.25275753    -0.09440
C240        C  0.34016705  0.15754154  0.26944776     0.06750
C241        C  0.37669700  0.18090234  0.29865382    -0.03210
C242        C  0.39503685  0.15472457  0.31789165    -0.07660
C243        C  0.38294152  0.10735813  0.30496657     0.05870
C244        C  0.35154323  0.08604790  0.27029401    -0.02690
Br245      Br  0.33373047  0.02260602  0.24650945    -0.02380
H246        H  0.30537391  0.09284505  0.22821130     0.09780
H247        H  0.42072501  0.17287512  0.34244387     0.07800
Br248      Br  0.41190056  0.24845223  0.30945826    -0.02810
C249        C  0.24468600  0.10840406  0.98299923    -0.09440
C250        C  0.25896936  0.14661480  0.01633028     0.06750
C251        C  0.22962258  0.16350442  0.02942947    -0.03210
C252        C  0.18921594  0.14271717  0.01019481    -0.07660
C253        C  0.17641652  0.10577283  0.97682552     0.05870
C254        C  0.20449785  0.08849960  0.96342043    -0.02690
Br255      Br  0.18925934  0.03657647  0.91925374    -0.02380
H256        H  0.26495054  0.09480680  0.96911287     0.09780
H257        H  0.16762062  0.15605375  0.02101700     0.07800
Br258      Br  0.24069219  0.21364245  0.07483991    -0.02810
C259        C  0.33885707  0.26478785  0.04385154    -0.09440
C260        C  0.32270549  0.22356024  0.01439046     0.06750
C261        C  0.32497322  0.23207493  0.96370463    -0.03210
C262        C  0.34357629  0.27867595  0.94530602    -0.07660
C263        C  0.36311285  0.31816249  0.97500380     0.05870
C264        C  0.36161997  0.31092337  0.02458991    -0.02690
Br265      Br  0.39777515  0.36075879  0.06653224    -0.02380
H266        H  0.33683517  0.26209826  0.08219361     0.09780
H267        H  0.34606540  0.28407129  0.90691184     0.07800
Br268      Br  0.31011294  0.18411221  0.91500520    -0.02810
C269        C  0.31901857  0.09901703  0.02410511    -0.09440
C270        C  0.33346260  0.14875062  0.01772102     0.06750
C271        C  0.37503826  0.17491242  0.99831669    -0.03210
C272        C  0.39473556  0.15082849  0.97675558    -0.07660
C273        C  0.37734619  0.10083279  0.97731367     0.05870
C274        C  0.33949927  0.07486243  0.00333613    -0.02690
Br275      Br  0.31333109  0.00672360  0.01270735    -0.02380
H276        H  0.29000429  0.07806163  0.04333284     0.09780
H277        H  0.42529693  0.17228024  0.96066566     0.07800
Br278      Br  0.41288112  0.24229428  0.00510482    -0.02810
C279        C  0.34424149  0.19405277  0.11575741    -0.09440
C280        C  0.30582890  0.16837456  0.09186606     0.06750
C281        C  0.27156287  0.13754901  0.12182652    -0.03210
C282        C  0.27401957  0.14293079  0.17166318    -0.07660
C283        C  0.31084189  0.17547101  0.19565439     0.05870
C284        C  0.34732244  0.19743769  0.16583599    -0.02690
Br285      Br  0.40353102  0.23201415  0.18876277    -0.02380
H286        H  0.37262554  0.21306794  0.09501596     0.09780
H287        H  0.24681179  0.11808820  0.19160093     0.07800
Br288      Br  0.22274600  0.08060788  0.10155480    -0.02810
C289        C  0.30513984  0.67155873  0.03547687    -0.02770
C290        C  0.31126989  0.67905929  0.25253074    -0.02770
C291        C  0.18057753  0.86458995  0.74971095    -0.02770
C292        C  0.18342870  0.87214317  0.53138552    -0.02770
O293        O  0.97044991  0.52805698  0.04017710    -0.75580
O294        O  0.40392810  0.98614059  0.01202531    -0.54490
C295        C  0.43023438  0.50916251  0.04467783     0.78150
O296        O  0.05715592  0.66482237  0.84390620    -0.60180
O297        O  0.10521932  0.63764545  0.83229536    -0.53210
C298        C  0.09230717  0.66931599  0.82739605     0.70160
O299        O  0.43829174  0.60839055  0.93654843    -0.74740
O300        O  0.38622913  0.53331959  0.95133524    -0.55300
C301        C  0.40182885  0.57907803  0.95350561     0.76170
O302        O  0.10304002  0.57263071  0.98735212    -0.59880
O303        O  0.12949457  0.58257387  0.91145225    -0.53000
C304        C  0.13357605  0.58555982  0.95716528     0.72760
Zr305      Zr  0.02647296  0.53543059  0.98581105     2.54710
O306        O  0.05478390  0.59593035  0.04782939    -0.80450
O307        O  0.03243456  0.47861708  0.04024426    -0.93870
Zr308      Zr  0.49834979  0.61003713  0.89359751     2.64680
O309        O  0.03262411  0.67659040  0.94865332    -0.98820
O310        O  0.47344654  0.65628112  0.84610190    -0.80880
O311        O  0.47462497  0.55423436  0.95660757    -0.84240
O312        O  0.05156757  0.59245775  0.92265251    -2.18950
O313        O  0.04999338  0.92683981  0.86096643    -0.67630
O314        O  0.09985073  0.50105196  0.83931840    -0.52190
C315        C  0.08600516  0.45530812  0.84316478     0.71140
O316        O  0.38422033  0.96621401  0.79974455    -0.60540
O317        O  0.35714705  0.95456972  0.87492501    -0.52510
C318        C  0.35321798  0.95262980  0.82903379     0.72940
O319        O  0.51559716  0.53681231  0.74376292    -0.71930
O320        O  0.08123459  0.56270317  0.77437836    -0.50610
C321        C  0.05560154  0.55515746  0.74006536     0.74330
O322        O  0.42484580  0.86730131  0.93331926    -0.67260
O323        O  0.38171513  0.89904612  0.95526977    -0.54460
C324        C  0.39145490  0.86458833  0.95301744     0.72710
Zr325      Zr  0.48817360  0.92788791  0.89514921     2.77540
O326        O  0.45933608  0.86259355  0.83794423    -0.98010
O327        O  0.00860922  0.88327080  0.95084394    -0.78830
Zr328      Zr  0.46005323  0.50296027  0.80275913     2.70070
O329        O  0.44177458  0.93883187  0.74502664    -0.80080
O330        O  0.44240775  0.55118226  0.74845461    -0.99160
Zr331      Zr  0.41724648  0.98248005  0.92852517     2.21500
Zr332      Zr  0.06917168  0.55412813  0.85916586     2.11130
O333        O  0.01184564  0.98254996  0.83017893    -2.47850
O334        O  0.43507423  0.94509794  0.86507433    -0.79870
O335        O  0.04585628  0.49835088  0.92380900    -0.72070
O336        O  0.44056973  0.53962422  0.86486408    -2.33020
O337        O  0.46964679  0.96350054  0.95935678    -2.29230
O338        O  0.01675711  0.57366364  0.83067096    -0.73830
H339        H  0.07564989  0.62155715  0.93234343     0.78170
H340        H  0.41858067  0.54688268  0.85462700     0.79260
H341        H  0.02059148  0.96939229  0.80386792     0.81480
H342        H  0.45915129  0.94200582  0.98640274     0.79090
H343        H  0.46160684  0.63680224  0.81714123     0.42130
H344        H  0.46649802  0.58367672  0.75013208     0.41100
H345        H  0.42753145  0.90906977  0.76422345     0.40770
H346        H  0.47848288  0.87411734  0.80995496     0.38710
H347        H  0.03328465  0.90807819  0.96747089     0.41840
H348        H  0.00773756  0.96790640  0.06172325     0.36620
H349        H  0.05012011  0.62262209  0.03583765     0.42740
H350        H  0.06141395  0.69537735  0.93577564     0.39160
H351        H  0.46453086  0.83710458  0.85220085     0.44070
H352        H  0.05656409  0.49856075  0.06071874     0.42800
H353        H  0.01898268  0.69707928  0.94290455     0.42930
H354        H  0.44449412  0.53967534  0.71615060     0.43290
O355        O  0.44299286  0.61354018  0.34277327    -0.75580
O356        O  0.39033275  0.53872155  0.32977499    -0.54490
C357        C  0.40662875  0.58450273  0.32674268     0.78150
O358        O  0.10768311  0.58163768  0.29536537    -0.60180
O359        O  0.13229725  0.59051213  0.37160966    -0.53210
C360        C  0.13738915  0.59459448  0.32588614     0.70160
O361        O  0.97652407  0.53247385  0.24045938    -0.74740
O362        O  0.40995806  0.99109789  0.27004753    -0.55300
C363        C  0.43636125  0.51326030  0.23664735     0.76170
O364        O  0.06168664  0.67483129  0.42845286    -0.59880
O365        O  0.10740506  0.64632530  0.44768678    -0.53000
C366        C  0.09613405  0.67959613  0.44626195     0.72760
Zr367      Zr  0.50000218  0.61559382  0.38937845     2.54710
O368        O  0.03014496  0.68632966  0.33815294    -0.80450
O369        O  0.47148899  0.65349916  0.44392303    -0.93870
Zr370      Zr  0.03151853  0.54394526  0.29702342     2.64680
O371        O  0.05600001  0.61009005  0.24009123    -0.98820
O372        O  0.04312955  0.49396704  0.23882889    -0.80880
O373        O  0.47866545  0.56143804  0.32566958    -0.84240
O374        O  0.05427647  0.59977296  0.36049641    -2.18950
O375        O  0.51507508  0.54115962  0.54032067    -0.67630
O376        O  0.08133470  0.56921334  0.50950441    -0.52190
C377        C  0.05508682  0.56003942  0.54402650     0.71140
O378        O  0.42937553  0.87506981  0.34915342    -0.60540
O379        O  0.38619035  0.90667074  0.32761261    -0.52510
C380        C  0.39596870  0.87241311  0.32970445     0.72940
O381        O  0.05311742  0.93467351  0.42911590    -0.71930
O382        O  0.10160237  0.51055588  0.44848085    -0.50610
C383        C  0.08820738  0.46492031  0.44772686     0.74330
O384        O  0.38550840  0.97447422  0.48289372    -0.67260
O385        O  0.36116231  0.96036056  0.40658868    -0.54460
C386        C  0.35585330  0.95924255  0.45221195     0.72710
Zr387      Zr  0.46116527  0.50793470  0.48029847     2.77540
O388        O  0.44083557  0.93905846  0.53306765    -0.98010
O389        O  0.44113615  0.55033188  0.53930853    -0.78830
Zr390      Zr  0.49309390  0.93495654  0.38804918     2.70070
O391        O  0.46412018  0.86589012  0.44146115    -0.80080
O392        O  0.01871351  0.89518254  0.33222271    -0.99160
Zr393      Zr  0.42197856  0.98902749  0.35376679     2.21500
Zr394      Zr  0.07128100  0.56202582  0.42441287     2.11130
O395        O  0.01408557  0.98936062  0.45283818    -2.47850
O396        O  0.43870610  0.95101514  0.41752594    -0.79870
O397        O  0.01792940  0.58014897  0.45327426    -0.72070
O398        O  0.47531652  0.97092725  0.32354266    -2.33020
O399        O  0.44241920  0.54472314  0.41783480    -2.29230
O400        O  0.05045421  0.50686723  0.35962846    -0.73830
H401        H  0.07821039  0.62929863  0.35087556     0.78170
H402        H  0.46556746  0.94971352  0.29646845     0.79260
H403        H  0.02238562  0.97647538  0.47962098     0.81480
H404        H  0.41992745  0.55148694  0.42750783     0.79090
H405        H  0.04533351  0.96896326  0.25820288     0.42130
H406        H  0.04942002  0.91589919  0.33079008     0.41100
H407        H  0.43935530  0.86648057  0.45635544     0.40770
H408        H  0.46756343  0.94039821  0.54347489     0.38710
H409        H  0.45448772  0.58390308  0.52776057     0.41840
H410        H  0.44172546  0.64082485  0.43486165     0.36620
H411        H  0.01601014  0.70535979  0.34816826     0.42740
H412        H  0.07075242  0.63926849  0.25962348     0.39160
H413        H  0.42961707  0.94726327  0.56202481     0.44070
H414        H  0.48474808  0.68749742  0.43375635     0.42800
H415        H  0.07825523  0.60780452  0.22105752     0.42930
H416        H  0.01514400  0.86605434  0.34943740     0.43290
C417        C  0.07629589  0.53335040  0.61534874    -0.09440
C418        C  0.07078632  0.56946267  0.59242037     0.06750
C419        C  0.06813266  0.60565585  0.61932231    -0.03210
C420        C  0.07059887  0.60490752  0.66887722    -0.07660
C421        C  0.07185626  0.56616820  0.69177272     0.05870
C422        C  0.07482646  0.53036467  0.66497543    -0.02690
Br423      Br  0.56542344  0.97134242  0.69432659    -0.02380
H424        H  0.07565098  0.00386553  0.59484139     0.09780
H425        H  0.06585450  0.63100987  0.68966055     0.07800
Br426      Br  0.05287607  0.65094032  0.59119559    -0.02810
C427        C  0.93889551  0.55880154  0.11449922    -0.09440
C428        C  0.41489525  0.51523966  0.09139420     0.06750
C429        C  0.38546776  0.97597828  0.11810694    -0.03210
C430        C  0.38929659  0.97670517  0.16780002    -0.07660
C431        C  0.42047513  0.51735367  0.18998047     0.05870
C432        C  0.94119466  0.56025876  0.16391256    -0.02690
Br433      Br  0.97524314  0.62058797  0.19395973    -0.02380
H434        H  0.95923071  0.59049475  0.09406136     0.09780
H435        H  0.37027168  0.94469852  0.18840679     0.07800
Br436      Br  0.34154123  0.92070191  0.08899506    -0.02810
C437        C  0.12519008  0.76700635  0.44138003    -0.09440
C438        C  0.12324282  0.72754043  0.46605602     0.06750
C439        C  0.14175501  0.73480883  0.51117597    -0.03210
C440        C  0.15593903  0.77931923  0.53356006    -0.07660
C441        C  0.15947100  0.82046598  0.50900622     0.05870
C442        C  0.14487053  0.81293624  0.46043765    -0.02690
Br443      Br  0.15442601  0.86188067  0.41345035    -0.02380
H444        H  0.11245751  0.76220113  0.40564861     0.09780
H445        H  0.16504474  0.78060974  0.57001367     0.07800
Br446      Br  0.15153778  0.68684449  0.54252561    -0.02810
C447        C  0.09258934  0.90098092  0.49581157    -0.09440
C448        C  0.11359047  0.94489625  0.47165477     0.06750
C449        C  0.15774668  0.96804798  0.47143023    -0.03210
C450        C  0.17965839  0.94549928  0.49144400    -0.07660
C451        C  0.15899606  0.89996684  0.51416729     0.05870
C452        C  0.11422223  0.87907153  0.51763511    -0.02690
Br453      Br  0.07938760  0.82036821  0.55153106    -0.02380
H454        H  0.05867499  0.88345065  0.49813897     0.09780
H455        H  0.21311121  0.96384896  0.48681621     0.07800
Br456      Br  0.19059270  0.52933491  0.44180832    -0.02810
C457        C  0.24189326  0.87409373  0.47451958    -0.09440
C458        C  0.22983554  0.89637786  0.51149224     0.06750
C459        C  0.26228202  0.94048227  0.52919072    -0.03210
C460        C  0.30286577  0.96025614  0.50937081    -0.07660
C461        C  0.31265274  0.93829009  0.47122442     0.05870
C462        C  0.28155945  0.89492623  0.45375859    -0.02690
Br463      Br  0.29161544  0.86003349  0.40325881    -0.02380
H464        H  0.22130363  0.83942159  0.46055516     0.09780
H465        H  0.32695404  0.99361931  0.52347364     0.07800
Br466      Br  0.25468502  0.97748979  0.57933619    -0.02810
C467        C  0.18209881  0.78737296  0.78340145    -0.09440
C468        C  0.15971900  0.80871383  0.76031400     0.06750
C469        C  0.11740056  0.77625806  0.74819010    -0.03210
C470        C  0.09718607  0.73062348  0.76896035    -0.07660
C471        C  0.11802498  0.71390138  0.79965298     0.05870
C472        C  0.16159868  0.74154009  0.80437775    -0.02690
Br473      Br  0.19417771  0.72087915  0.84276034    -0.02380
H474        H  0.21560726  0.80668611  0.78779442     0.09780
H475        H  0.06411443  0.70830152  0.76220409     0.07800
Br476      Br  0.08202416  0.79067122  0.70792935    -0.02810
C477        C  0.12157297  0.86305047  0.80529020    -0.09440
C478        C  0.15715065  0.88968002  0.77600871     0.06750
C479        C  0.17202573  0.94053844  0.77552441    -0.03210
C480        C  0.14925974  0.96098155  0.79855067    -0.07660
C481        C  0.11210680  0.93304813  0.82423830     0.05870
C482        C  0.09963398  0.88350405  0.82902998    -0.02690
Br483      Br  0.05406534  0.83979439  0.86899515    -0.02380
H484        H  0.11085607  0.82570078  0.81254501     0.09780
H485        H  0.16023587  0.99915614  0.79490828     0.07800
Br486      Br  0.21988542  0.98513136  0.73930830    -0.02810
C487        C  0.26191128  0.91592797  0.74173255    -0.09440
C488        C  0.22624857  0.89004063  0.77113279     0.06710
C489        C  0.23417924  0.88987757  0.82129553    -0.03210
C490        C  0.27523561  0.91045867  0.83862547    -0.07660
C491        C  0.31018932  0.93317688  0.80835165     0.05870
C492        C  0.30280472  0.93679700  0.75922354    -0.02690
Br493      Br  0.34594554  0.97129711  0.71252913    -0.02380
H494        H  0.25883733  0.92248243  0.70456477     0.09780
H495        H  0.27971696  0.90800442  0.87656047     0.07800
Br496      Br  0.19187311  0.86046903  0.87011638    -0.02810
C497        C  0.16250100  0.89053568  0.61536651    -0.09440
C498        C  0.18416653  0.87098828  0.58834011     0.06750
C499        C  0.20741127  0.85356289  0.61610604    -0.03210
C500        C  0.20323330  0.85002208  0.66637252    -0.07660
C501        C  0.18071453  0.86888814  0.69314244     0.05870
C502        C  0.15922947  0.88851606  0.66523925    -0.02690
Br503      Br  0.11860378  0.90775809  0.68669725    -0.02380
H504        H  0.14700018  0.90836481  0.59816584     0.09780
H505        H  0.21994662  0.83427642  0.68537520     0.07800
Br506      Br  0.24781001  0.83591889  0.58962264    -0.02810
C507        C  0.23825248  0.67128177  0.25848807    -0.09440
C508        C  0.26486081  0.65142684  0.27228592     0.06750
C509        C  0.24666980  0.61073131  0.30428200    -0.03210
C510        C  0.20504390  0.59304666  0.31983110    -0.07660
C511        C  0.18045365  0.61446059  0.30670797     0.05870
C512        C  0.19724049  0.65381513  0.27551862    -0.02690
Br513      Br  0.16673708  0.68752058  0.25773438    -0.02380
H514        H  0.25008907  0.70195044  0.23463063     0.09780
H515        H  0.19163067  0.56237602  0.34361306     0.07800
Br516      Br  0.27347652  0.57890935  0.33752196    -0.02810
C517        C  0.34444200  0.78790400  0.33898161    -0.09440
C518        C  0.36697022  0.82626266  0.30847279     0.06750
C519        C  0.36513805  0.81837709  0.25899666    -0.03210
C520        C  0.34321760  0.77168541  0.24110288    -0.07660
C521        C  0.32672838  0.73127558  0.27197544     0.05870
C522        C  0.32486051  0.74098448  0.32198319    -0.02690
Br523      Br  0.30374017  0.69459538  0.37268026    -0.02380
H524        H  0.34521706  0.79421379  0.37712380     0.09780
H525        H  0.34181922  0.76783016  0.20285669     0.07800
Br526      Br  0.39621542  0.86950250  0.21491560    -0.02810
C527        C  0.33095463  0.61120663  0.25275526    -0.09440
C528        C  0.34016744  0.65754143  0.26944501     0.06750
C529        C  0.37669758  0.68090251  0.29865088    -0.03210
C530        C  0.39503748  0.65472497  0.31788945    -0.07660
C531        C  0.38294198  0.60735819  0.30496555     0.05870
C532        C  0.35154370  0.58604771  0.27029284    -0.02690
Br533      Br  0.33373024  0.52260508  0.24651018    -0.02380
H534        H  0.30537460  0.59284480  0.22820897     0.09780
H535        H  0.42072573  0.67287594  0.34244146     0.07800
Br536      Br  0.41190118  0.74845255  0.30945428    -0.02810
C537        C  0.24467899  0.60840582  0.98299333    -0.09440
C538        C  0.25896179  0.64661713  0.01632418     0.06750
C539        C  0.22961350  0.66350460  0.02942222    -0.03210
C540        C  0.18920538  0.64271336  0.01018949    -0.07660
C541        C  0.17640563  0.60576756  0.97682113     0.05870
C542        C  0.20448990  0.58849837  0.96341481    -0.02690
Br543      Br  0.18925459  0.53657696  0.91924645    -0.02380
H544        H  0.26494473  0.59480991  0.96910746     0.09780
H545        H  0.16760914  0.65604837  0.02101236     0.07800
Br546      Br  0.24068382  0.71364474  0.07482987    -0.02810
C547        C  0.33885443  0.76479185  0.04384404    -0.09440
C548        C  0.32270190  0.72356339  0.01438417     0.06750
C549        C  0.32497822  0.73207690  0.96369760    -0.03210
C550        C  0.34359575  0.77867763  0.94529731    -0.07660
C551        C  0.36313433  0.81816357  0.97499529     0.05870
C552        C  0.36162880  0.81092579  0.02458230    -0.02690
Br553      Br  0.39778090  0.86075932  0.06652835    -0.02380
H554        H  0.33682521  0.76210281  0.08218606     0.09780
H555        H  0.34609165  0.78407209  0.90690305     0.07800
Br556      Br  0.31011128  0.68411101  0.91500060    -0.02810
C557        C  0.31901011  0.59902038  0.02410590    -0.09440
C558        C  0.33345551  0.64875385  0.01772100     0.06750
C559        C  0.37503291  0.67491517  0.99832064    -0.03210
C560        C  0.39472939  0.65083073  0.97676014    -0.07660
C561        C  0.37733827  0.60083528  0.97731781     0.05870
C562        C  0.33949110  0.57486535  0.00333974    -0.02690
Br563      Br  0.31332368  0.50672708  0.01271555    -0.02380
H564        H  0.28999501  0.57806557  0.04333224     0.09780
H565        H  0.42529146  0.67228166  0.96067140     0.07800
Br566      Br  0.41287972  0.74229540  0.00511381    -0.02810
C567        C  0.34423555  0.69405884  0.11575379    -0.09440
C568        C  0.30582233  0.66838032  0.09186298     0.06750
C569        C  0.27155774  0.63755298  0.12182420    -0.03210
C570        C  0.27401650  0.64293165  0.17166146    -0.07660
C571        C  0.31083953  0.67547103  0.19565236     0.05870
C572        C  0.34731868  0.69743987  0.16583247    -0.02690
Br573      Br  0.40352811  0.73201395  0.18875773    -0.02380
H574        H  0.37261897  0.71307553  0.09501218     0.09780
H575        H  0.24680976  0.61808755  0.19159972     0.07800
Br576      Br  0.22274092  0.58061245  0.10155193    -0.02810
C577        C  0.80514701  0.17155503  0.03548064    -0.02770
C578        C  0.81127043  0.17905988  0.25253244    -0.02770
C579        C  0.68055715  0.36459276  0.74970590    -0.02770
C580        C  0.68342920  0.37214312  0.53138204    -0.02770
O581        O  0.47046205  0.02806159  0.04017470    -0.75580
O582        O  0.90391466  0.48614583  0.01202773    -0.54490
C583        C  0.93024607  0.00916182  0.04467511     0.78150
O584        O  0.55716851  0.16482672  0.84391080    -0.60180
O585        O  0.60523721  0.13765759  0.83229907    -0.53210
C586        C  0.59232111  0.16932460  0.82740102     0.70160
O587        O  0.93830020  0.10839051  0.93654217    -0.74740
O588        O  0.88624322  0.03331779  0.95133524    -0.55300
C589        C  0.90183886  0.07907643  0.95350196     0.76170
O590        O  0.60305292  0.07263765  0.98735410    -0.59880
O591        O  0.62951064  0.08258678  0.91145501    -0.53000
C592        C  0.63358941  0.08556892  0.95716817     0.72760
Zr593      Zr  0.52648787  0.03543840  0.98581065     2.54710
O594        O  0.55479789  0.09594085  0.04782660    -0.80450
O595        O  0.53244786  0.97862601  0.04024682    -0.93870
Zr596      Zr  0.99836032  0.11003791  0.89359473     2.64680
O597        O  0.53262753  0.17659199  0.94865135    -0.98820
O598        O  0.97345456  0.15627574  0.84609301    -0.80880
O599        O  0.97463810  0.05423806  0.95660686    -0.84240
O600        O  0.55158116  0.09246403  0.92265028    -2.18950
O601        O  0.54994867  0.42681037  0.86094476    -0.67630
O602        O  0.59988668  0.00107590  0.83931540    -0.52190
C603        C  0.58604612  0.95533370  0.84317556     0.71140
O604        O  0.88419990  0.46622822  0.79974403    -0.60540
O605        O  0.85712769  0.45457835  0.87492539    -0.52510
C606        C  0.85319785  0.45264444  0.82903392     0.72940
O607        O  0.01561340  0.03680978  0.74375969    -0.71930
O608        O  0.58125254  0.06271390  0.77437467    -0.50610
C609        C  0.55561790  0.05516081  0.74006155     0.74330
O610        O  0.92481956  0.36729805  0.93332336    -0.67260
O611        O  0.88169156  0.39904565  0.95527516    -0.54460
C612        C  0.89143038  0.36458691  0.95302343     0.72710
Zr613      Zr  0.98814548  0.42787907  0.89514907     2.77540
O614        O  0.95929001  0.36256426  0.83796827    -0.98010
O615        O  0.50859245  0.38328220  0.95085618    -0.78830
Zr616      Zr  0.96007350  0.00295988  0.80275875     2.70070
O617        O  0.94175323  0.43883172  0.74502738    -0.80080
O618        O  0.94242351  0.05117965  0.74845638    -0.99160
Zr619      Zr  0.91722789  0.48247947  0.92852649     2.21500
Zr620      Zr  0.56919248  0.05413898  0.85916399     2.11130
O621        O  0.51182040  0.48254307  0.83017996    -2.47850
O622        O  0.93505002  0.44509557  0.86507309    -0.79870
O623        O  0.54587862  0.99836387  0.92380976    -0.72070
O624        O  0.94058437  0.03962181  0.86486071    -2.33020
O625        O  0.96962569  0.46349589  0.95935803    -2.29230
O626        O  0.51677345  0.07366764  0.83066924    -0.73830
H627        H  0.57566175  0.12156468  0.93234205     0.78170
H628        H  0.91859365  0.04687689  0.85462243     0.79260
H629        H  0.52056403  0.46938470  0.80386781     0.81480
H630        H  0.95912953  0.44200156  0.98640436     0.79090
H631        H  0.96160723  0.13678954  0.81713835     0.42130
H632        H  0.96651344  0.08367448  0.75013243     0.41100
H633        H  0.92750391  0.40906972  0.76422322     0.40770
H634        H  0.97839504  0.37410611  0.80994463     0.38710
H635        H  0.53328941  0.40809300  0.96744910     0.41840
H636        H  0.50772533  0.46789770  0.06172225     0.36620
H637        H  0.55012422  0.12262696  0.03583875     0.42740
H638        H  0.56141839  0.19538015  0.93577696     0.39160
H639        H  0.96454334  0.33710644  0.85219668     0.44070
H640        H  0.55657630  0.99857019  0.06072247     0.42800
H641        H  0.51898539  0.19707958  0.94289914     0.42930
H642        H  0.94450855  0.03967243  0.71615207     0.43290
O643        O  0.94299268  0.11353997  0.34277239    -0.75580
O644        O  0.89033207  0.03872147  0.32977462    -0.54490
C645        C  0.90662835  0.08450262  0.32674246     0.78150
O646        O  0.60768249  0.08163787  0.29536325    -0.60180
O647        O  0.63229637  0.09051187  0.37160757    -0.53210
C648        C  0.63738845  0.09459462  0.32588412     0.70160
O649        O  0.47652377  0.03247353  0.24045748    -0.74740
O650        O  0.90995860  0.49109735  0.27005001    -0.55300
C651        C  0.93636094  0.01326042  0.23664493     0.76170
O652        O  0.56168548  0.17482919  0.42845527    -0.59880
O653        O  0.60740439  0.14632339  0.44768725    -0.53000
C654        C  0.59613302  0.17959391  0.44626400     0.72760
Zr655      Zr  0.00000191  0.11559376  0.38937720     2.54710
O656        O  0.53014590  0.18633015  0.33815236    -0.80450
O657        O  0.97148858  0.15349975  0.44392085    -0.93870
Zr658      Zr  0.53151786  0.04394482  0.29702175     2.64680
O659        O  0.55599941  0.11008914  0.24008892    -0.98820
O660        O  0.54312847  0.99396625  0.23882733    -0.80880
O661        O  0.97866486  0.06143789  0.32566815    -0.84240
O662        O  0.55427601  0.09977283  0.36049448    -2.18950
O663        O  0.01507508  0.04116074  0.54031807    -0.67630
O664        O  0.58133430  0.06921304  0.50950087    -0.52190
C665        C  0.55508691  0.06003997  0.54402311     0.71140
O666        O  0.92937665  0.37507032  0.34915380    -0.60540
O667        O  0.88619117  0.40667117  0.32761417    -0.52510
C668        C  0.89596970  0.37241366  0.32970521     0.72940
O669        O  0.55311959  0.43467551  0.42911357    -0.71930
O670        O  0.60160051  0.01055443  0.44848092    -0.50610
C671        C  0.58820523  0.96491871  0.44772920     0.74330
O672        O  0.88550971  0.47447409  0.48289590    -0.67260
O673        O  0.86116375  0.46036133  0.40659077    -0.54460
C674        C  0.85585478  0.45924287  0.45221401     0.72710
Zr675      Zr  0.96116419  0.00793468  0.48029674     2.77540
O676        O  0.94083659  0.43905795  0.53306876    -0.98010
O677        O  0.94113518  0.05033218  0.53930656    -0.78830
Zr678      Zr  0.99309463  0.43495706  0.38805024     2.70070
O679        O  0.96412165  0.36589096  0.44146270    -0.80080
O680        O  0.51871372  0.39518228  0.33222410    -0.99160
Zr681      Zr  0.92197943  0.48902783  0.35376869     2.21500
Zr682      Zr  0.57128005  0.06202488  0.42441050     2.11130
O683        O  0.51408672  0.48936086  0.45283981    -2.47850
O684        O  0.93870688  0.45101522  0.41752761    -0.79870
O685        O  0.51792879  0.08014837  0.45327237    -0.72070
O686        O  0.97531723  0.47092767  0.32354397    -2.33020
O687        O  0.94241843  0.04472306  0.41783288    -2.29230
O688        O  0.55045357  0.00686624  0.35962639    -0.73830
H689        H  0.57821001  0.12929850  0.35087380     0.78170
H690        H  0.96556818  0.44971406  0.29646968     0.79260
H691        H  0.52238692  0.47647540  0.47962233     0.81480
H692        H  0.91992671  0.05148695  0.42750583     0.79090
H693        H  0.54533377  0.46896308  0.25820489     0.42130
H694        H  0.54942014  0.41589932  0.33079038     0.41100
H695        H  0.93935530  0.36647958  0.45635501     0.40770
H696        H  0.96756442  0.44039776  0.54347618     0.38710
H697        H  0.95448765  0.08390356  0.52775910     0.41840
H698        H  0.94172487  0.14082469  0.43485996     0.36620
H699        H  0.51600979  0.20535938  0.34816604     0.42740
H700        H  0.57075230  0.13926773  0.25962084     0.39160
H701        H  0.92961776  0.44726233  0.56202592     0.44070
H702        H  0.98474711  0.18749773  0.43375326     0.42800
H703        H  0.57825426  0.10780308  0.22105494     0.42930
H704        H  0.51514505  0.36605472  0.34943939     0.43290
C705        C  0.57629782  0.03334891  0.61534163    -0.09440
C706        C  0.57078782  0.06946196  0.59241607     0.06750
C707        C  0.56813839  0.10565654  0.61931970    -0.03210
C708        C  0.57061191  0.10491035  0.66887407    -0.07660
C709        C  0.57187016  0.06617053  0.69176790     0.05870
C710        C  0.57483303  0.03036375  0.66496813    -0.02690
Br711      Br  0.06542363  0.47134750  0.69433772    -0.02380
H712        H  0.57565318  0.50386850  0.59484988     0.09780
H713        H  0.56587126  0.13101423  0.68965927     0.07800
Br714      Br  0.55287861  0.15094020  0.59119705    -0.02810
C715        C  0.43890277  0.05880082  0.11449557    -0.09440
C716        C  0.91490430  0.01523864  0.09139019     0.06750
C717        C  0.88546163  0.47597844  0.11811229    -0.03210
C718        C  0.88929437  0.47670479  0.16780473    -0.07660
C719        C  0.92047589  0.01735394  0.18997724     0.05870
C720        C  0.44119762  0.06025875  0.16390913    -0.02690
Br721      Br  0.47524414  0.12058828  0.19395659    -0.02380
H722        H  0.45923960  0.09049384  0.09405844     0.09780
H723        H  0.87027136  0.44469773  0.18841186     0.07800
Br724      Br  0.84153528  0.42070072  0.08900220    -0.02810
C725        C  0.62518956  0.26700362  0.44138050    -0.09440
C726        C  0.62324227  0.22753833  0.46605757     0.06750
C727        C  0.64175747  0.23480831  0.51117605    -0.03210
C728        C  0.65594432  0.27932014  0.53355819    -0.07660
C729        C  0.65947320  0.32046540  0.50900408     0.05870
C730        C  0.64487168  0.31293412  0.46043598    -0.02690
Br731      Br  0.65442852  0.36187702  0.41344618    -0.02380
H732        H  0.61245596  0.26219742  0.40564952     0.09780
H733        H  0.66505451  0.28061311  0.57001031     0.07800
Br734      Br  0.65154052  0.18684430  0.54252591    -0.02810
C735        C  0.59259058  0.40097980  0.49580350    -0.09440
C736        C  0.61359245  0.44489682  0.47165011     0.06750
C737        C  0.65774862  0.46804848  0.47142628    -0.03210
C738        C  0.67965984  0.44549872  0.49143873    -0.07660
C739        C  0.65899678  0.39996540  0.51416001     0.05870
C740        C  0.61422264  0.37906898  0.51762527    -0.02690
Br741      Br  0.57938642  0.32036436  0.55151901    -0.02380
H742        H  0.55867618  0.38344948  0.49813008     0.09780
H743        H  0.71311285  0.46384880  0.48681275     0.07800
Br744      Br  0.69059028  0.02933251  0.44180839    -0.02810
C745        C  0.74189516  0.37409387  0.47451934    -0.09440
C746        C  0.72983665  0.39637778  0.51149138     0.06750
C747        C  0.76228251  0.44048214  0.52919070    -0.03210
C748        C  0.80286671  0.46025607  0.50937209    -0.07660
C749        C  0.81265434  0.43829018  0.47122606     0.05870
C750        C  0.78156158  0.39492649  0.45375945    -0.02690
Br751      Br  0.79161817  0.36003443  0.40325938    -0.02380
H752        H  0.72130574  0.33942217  0.46055383     0.09780
H753        H  0.82695468  0.49361917  0.52347540     0.07800
Br754      Br  0.75468388  0.47748897  0.57933575    -0.02810
C755        C  0.68209749  0.28738919  0.78340100    -0.09440
C756        C  0.65970915  0.30871915  0.76031307     0.06750
C757        C  0.61739218  0.27625491  0.74819258    -0.03210
C758        C  0.59718684  0.23062148  0.76896416    -0.07660
C759        C  0.61803303  0.21390934  0.79965643     0.05870
C760        C  0.66160584  0.24155675  0.80437906    -0.02690
Br761      Br  0.69419430  0.22090732  0.84275881    -0.02380
H762        H  0.71560583  0.30671033  0.78779194     0.09780
H763        H  0.56411594  0.20829216  0.76220974     0.07800
Br764      Br  0.58200392  0.29065055  0.70793493    -0.02810
C765        C  0.62155097  0.36304087  0.80529049    -0.09440
C766        C  0.65711923  0.38967268  0.77599545     0.06750
C767        C  0.67197875  0.44052750  0.77549231    -0.03210
C768        C  0.64920713  0.46096394  0.79851521    -0.07660
C769        C  0.61206778  0.43302880  0.82422394     0.05870
C770        C  0.59961236  0.38349135  0.82903654    -0.02690
Br771      Br  0.55408137  0.33979743  0.86905502    -0.02380
H772        H  0.61084709  0.32569532  0.81255697     0.09780
H773        H  0.66016936  0.49913458  0.79485634     0.07800
Br774      Br  0.71982211  0.48512069  0.73925405    -0.02810
C775        C  0.76188975  0.41595240  0.74173324    -0.09440
C776        C  0.72622726  0.39005796  0.77113157     0.06710
C777        C  0.73415793  0.38989693  0.82129482    -0.03210
C778        C  0.77521447  0.41048038  0.83862551    -0.07660
C779        C  0.81016860  0.43319813  0.80835220     0.05870
C780        C  0.80278352  0.43682126  0.75922455    -0.02690
Br781      Br  0.84592460  0.47131915  0.71253008    -0.02380
H782        H  0.75881512  0.42250655  0.70456544     0.09780
H783        H  0.77969573  0.40802545  0.87656042     0.07800
Br784      Br  0.69185328  0.36048362  0.87011591    -0.02810
C785        C  0.66248922  0.39053052  0.61535769    -0.09440
C786        C  0.68416272  0.37098949  0.58833657     0.06750
C787        C  0.70740828  0.35356916  0.61610778    -0.03210
C788        C  0.70322621  0.35002970  0.66637388    -0.07660
C789        C  0.68069580  0.36888519  0.69313742     0.05870
C790        C  0.65920432  0.38850096  0.66522863    -0.02690
Br791      Br  0.61855176  0.40770855  0.68667235    -0.02380
H792        H  0.64698894  0.40835868  0.59815443     0.09780
H793        H  0.71994395  0.33429244  0.68538136     0.07800
Br794      Br  0.74781484  0.33593301  0.58963321    -0.02810
C795        C  0.73825278  0.17128240  0.25848762    -0.09440
C796        C  0.76486095  0.15142759  0.27228654     0.06750
C797        C  0.74666942  0.11073198  0.30428249    -0.03210
C798        C  0.70504325  0.09304710  0.31983048    -0.07660
C799        C  0.68045310  0.11446083  0.30670637     0.05870
C800        C  0.69724040  0.15381552  0.27551718    -0.02690
Br801      Br  0.66673708  0.18752084  0.25773210    -0.02380
H802        H  0.75008979  0.20195110  0.23463021     0.09780
H803        H  0.69162974  0.06237650  0.34361250     0.07800
Br804      Br  0.77347556  0.07890999  0.33752362    -0.02810
C805        C  0.84444194  0.28790501  0.33898216    -0.09440
C806        C  0.86697112  0.32626336  0.30847335     0.06750
C807        C  0.86513963  0.31837752  0.25899725    -0.03210
C808        C  0.84321908  0.27168577  0.24110362    -0.07660
C809        C  0.82672889  0.23127622  0.27197649     0.05870
C810        C  0.82486021  0.24098543  0.32198397    -0.02690
Br811      Br  0.80373872  0.19459649  0.37268111    -0.02380
H812        H  0.84521648  0.29421500  0.37712427     0.09780
H813        H  0.84182153  0.26783004  0.20285742     0.07800
Br814      Br  0.89621783  0.36950264  0.21491622    -0.02810
C815        C  0.83095402  0.11120679  0.25275750    -0.09440
C816        C  0.84016707  0.15754155  0.26944772     0.06750
C817        C  0.87669704  0.18090237  0.29865376    -0.03210
C818        C  0.89503689  0.15472460  0.31789159    -0.07660
C819        C  0.88294154  0.10735815  0.30496654     0.05870
C820        C  0.85154324  0.08604791  0.27029398    -0.02690
Br821      Br  0.83373045  0.02260601  0.24650947    -0.02380
H822        H  0.80537392  0.09284505  0.22821129     0.09780
H823        H  0.92072506  0.17287516  0.34244380     0.07800
Br824      Br  0.91190059  0.24845226  0.30945819    -0.02810
C825        C  0.74468601  0.10840405  0.98299922    -0.09440
C826        C  0.75896935  0.14661479  0.01633026     0.06750
C827        C  0.72962257  0.16350441  0.02942945    -0.03210
C828        C  0.68921594  0.14271715  0.01019478    -0.07660
C829        C  0.67641652  0.10577282  0.97682549     0.05870
C830        C  0.70449785  0.08849959  0.96342041    -0.02690
Br831      Br  0.68925935  0.03657645  0.91925372    -0.02380
H832        H  0.76495054  0.09480680  0.96911285     0.09780
H833        H  0.66762061  0.15605373  0.02101697     0.07800
Br834      Br  0.74069217  0.21364244  0.07483988    -0.02810
C835        C  0.83885705  0.26478785  0.04385152    -0.09440
C836        C  0.82270548  0.22356024  0.01439044     0.06750
C837        C  0.82497321  0.23207493  0.96370461    -0.03210
C838        C  0.84357628  0.27867596  0.94530600    -0.07660
C839        C  0.86311284  0.31816250  0.97500378     0.05870
C840        C  0.86161996  0.31092338  0.02458989    -0.02690
Br841      Br  0.89777513  0.36075879  0.06653222    -0.02380
H842        H  0.83683514  0.26209827  0.08219359     0.09780
H843        H  0.84606540  0.28407129  0.90691182     0.07800
Br844      Br  0.81011294  0.18411221  0.91500518    -0.02810
C845        C  0.81901858  0.09901704  0.02410510    -0.09440
C846        C  0.83346260  0.14875063  0.01772101     0.06750
C847        C  0.87503826  0.17491243  0.99831667    -0.03210
C848        C  0.89473555  0.15082850  0.97675557    -0.07660
C849        C  0.87734619  0.10083280  0.97731366     0.05870
C850        C  0.83949927  0.07486244  0.00333612    -0.02690
Br851      Br  0.81333110  0.00672361  0.01270735    -0.02380
H852        H  0.79000430  0.07806164  0.04333284     0.09780
H853        H  0.92529693  0.17228025  0.96066565     0.07800
Br854      Br  0.91288111  0.24229429  0.00510480    -0.02810
C855        C  0.84424149  0.19405280  0.11575739    -0.09440
C856        C  0.80582890  0.16837456  0.09186604     0.06750
C857        C  0.77156287  0.13754901  0.12182650    -0.03210
C858        C  0.77401958  0.14293078  0.17166316    -0.07660
C859        C  0.81084190  0.17547102  0.19565438     0.05870
C860        C  0.84732244  0.19743772  0.16583596    -0.02690
Br861      Br  0.90353101  0.23201425  0.18876274    -0.02380
H862        H  0.87262553  0.21306798  0.09501593     0.09780
H863        H  0.74681181  0.11808817  0.19160092     0.07800
Br864      Br  0.72274599  0.08060788  0.10155478    -0.02810
C865        C  0.80513984  0.67155874  0.03547687    -0.02770
C866        C  0.81126989  0.67905929  0.25253074    -0.02770
C867        C  0.68057753  0.86458993  0.74971096    -0.02770
C868        C  0.68342869  0.87214316  0.53138554    -0.02770
O869        O  0.47044992  0.52805697  0.04017710    -0.75580
O870        O  0.90392808  0.98614057  0.01202530    -0.54490
C871        C  0.93023437  0.50916251  0.04467783     0.78150
O872        O  0.55715592  0.66482236  0.84390621    -0.60180
O873        O  0.60521932  0.63764544  0.83229537    -0.53210
C874        C  0.59230718  0.66931598  0.82739606     0.70160
O875        O  0.93829174  0.60839056  0.93654842    -0.74740
O876        O  0.88622913  0.53331960  0.95133524    -0.55300
C877        C  0.90182885  0.57907803  0.95350560     0.76170
O878        O  0.60304002  0.57263070  0.98735213    -0.59880
O879        O  0.62949457  0.58257386  0.91145225    -0.53000
C880        C  0.63357605  0.58555982  0.95716528     0.72760
Zr881      Zr  0.52647296  0.53543058  0.98581105     2.54710
O882        O  0.55478391  0.59593032  0.04782941    -0.80450
O883        O  0.53243456  0.47861705  0.04024425    -0.93870
Zr884      Zr  0.99834979  0.61003714  0.89359749     2.64680
O885        O  0.53262412  0.67659039  0.94865334    -0.98820
O886        O  0.97344653  0.65628113  0.84610188    -0.80880
O887        O  0.97462497  0.55423437  0.95660756    -0.84240
O888        O  0.55156758  0.59245774  0.92265252    -2.18950
O889        O  0.54999335  0.92683979  0.86096638    -0.67630
O890        O  0.59985073  0.50105195  0.83931840    -0.52190
C891        C  0.58600516  0.45530810  0.84316478     0.71140
O892        O  0.88422033  0.96621398  0.79974455    -0.60540
O893        O  0.85714705  0.95456972  0.87492501    -0.52510
C894        C  0.85321798  0.95262978  0.82903379     0.72940
O895        O  0.01559716  0.53681230  0.74376291    -0.71930
O896        O  0.58123460  0.56270317  0.77437836    -0.50610
C897        C  0.55560154  0.55515748  0.74006537     0.74330
O898        O  0.92484583  0.86730133  0.93331932    -0.67260
O899        O  0.88171514  0.89904613  0.95526977    -0.54460
C900        C  0.89145492  0.86458834  0.95301747     0.72710
Zr901      Zr  0.98817363  0.92788793  0.89514926     2.77540
O902        O  0.95933611  0.86259354  0.83794432    -0.98010
O903        O  0.50860915  0.88327072  0.95084386    -0.78830
Zr904      Zr  0.96005323  0.50296027  0.80275913     2.70070
O905        O  0.94177457  0.93883179  0.74502669    -0.80080
O906        O  0.94240775  0.55118227  0.74845461    -0.99160
Zr907      Zr  0.91724648  0.98248006  0.92852517     2.21500
Zr908      Zr  0.56917168  0.55412812  0.85916587     2.11130
O909        O  0.51184562  0.98254996  0.83017890    -2.47850
O910        O  0.93507424  0.94509793  0.86507436    -0.79870
O911        O  0.54585628  0.49835086  0.92380901    -0.72070
O912        O  0.94056973  0.53962422  0.86486407    -2.33020
O913        O  0.96964681  0.96350058  0.95935680    -2.29230
O914        O  0.51675712  0.57366363  0.83067097    -0.73830
H915        H  0.57564989  0.62155714  0.93234344     0.78170
H916        H  0.91858066  0.54688268  0.85462699     0.79260
H917        H  0.52059146  0.96939230  0.80386788     0.81480
H918        H  0.95915130  0.94200587  0.98640277     0.79090
H919        H  0.96160672  0.63680217  0.81714128     0.42130
H920        H  0.96649803  0.58367673  0.75013209     0.41100
H921        H  0.92753147  0.90906971  0.76422353     0.40770
H922        H  0.97848292  0.87411730  0.80995506     0.38710
H923        H  0.53328461  0.90807809  0.96747078     0.41840
H924        H  0.50773759  0.96790635  0.06172323     0.36620
H925        H  0.55012013  0.62262207  0.03583767     0.42740
H926        H  0.56141395  0.69537734  0.93577565     0.39160
H927        H  0.96453088  0.83710457  0.85220097     0.44070
H928        H  0.55656411  0.49856072  0.06071871     0.42800
H929        H  0.51898268  0.69707927  0.94290458     0.42930
H930        H  0.94449413  0.53967535  0.71615060     0.43290
O931        O  0.94299286  0.61354018  0.34277327    -0.75580
O932        O  0.89033275  0.53872155  0.32977500    -0.54490
C933        C  0.90662875  0.58450273  0.32674267     0.78150
O934        O  0.60768312  0.58163767  0.29536539    -0.60180
O935        O  0.63229726  0.59051214  0.37160968    -0.53210
C936        C  0.63738916  0.59459448  0.32588617     0.70160
O937        O  0.47652409  0.53247385  0.24045939    -0.74740
O938        O  0.90995800  0.99109787  0.27004755    -0.55300
C939        C  0.93636122  0.51326030  0.23664735     0.76170
O940        O  0.56168665  0.67483130  0.42845286    -0.59880
O941        O  0.60740506  0.64632530  0.44768679    -0.53000
C942        C  0.59613405  0.67959613  0.44626196     0.72760
Zr943      Zr  0.00000217  0.61559382  0.38937846     2.54710
O944        O  0.53014498  0.68632964  0.33815290    -0.80450
O945        O  0.97148897  0.65349914  0.44392306    -0.93870
Zr946      Zr  0.53151854  0.54394523  0.29702343     2.64680
O947        O  0.55600007  0.61008990  0.24009110    -0.98820
O948        O  0.54312950  0.49396690  0.23882899    -0.80880
O949        O  0.97866543  0.56143804  0.32566959    -0.84240
O950        O  0.55427647  0.59977295  0.36049641    -2.18950
O951        O  0.01507508  0.54115960  0.54032066    -0.67630
O952        O  0.58133470  0.56921335  0.50950442    -0.52190
C953        C  0.55508682  0.56003944  0.54402652     0.71140
O954        O  0.92937554  0.87506983  0.34915338    -0.60540
O955        O  0.88619033  0.90667074  0.32761262    -0.52510
C956        C  0.89596870  0.87241312  0.32970443     0.72940
O957        O  0.55311742  0.93467350  0.42911597    -0.71930
O958        O  0.60160237  0.51055589  0.44848087    -0.50610
C959        C  0.58820738  0.46492032  0.44772688     0.74330
O960        O  0.88550840  0.97447419  0.48289375    -0.67260
O961        O  0.86116229  0.96036056  0.40658870    -0.54460
C962        C  0.85585329  0.95924253  0.45221198     0.72710
Zr963      Zr  0.96116526  0.50793469  0.48029847     2.77540
O964        O  0.94083556  0.93905842  0.53306764    -0.98010
O965        O  0.94113616  0.55033187  0.53930853    -0.78830
Zr966      Zr  0.99309391  0.93495657  0.38804912     2.70070
O967        O  0.96412021  0.86589013  0.44146105    -0.80080
O968        O  0.51871348  0.89518244  0.33222283    -0.99160
Zr969      Zr  0.92197853  0.98902750  0.35376681     2.21500
Zr970      Zr  0.57128100  0.56202583  0.42441289     2.11130
O971        O  0.51408558  0.98936063  0.45283821    -2.47850
O972        O  0.93870610  0.95101513  0.41752592    -0.79870
O973        O  0.51792941  0.58014897  0.45327426    -0.72070
O974        O  0.97531652  0.97092732  0.32354263    -2.33020
O975        O  0.94241920  0.54472314  0.41783481    -2.29230
O976        O  0.55045423  0.50686722  0.35962849    -0.73830
H977        H  0.57821040  0.62929862  0.35087555     0.78170
H978        H  0.96556746  0.94971360  0.29646841     0.79260
H979        H  0.52238562  0.97647540  0.47962103     0.81480
H980        H  0.91992744  0.55148693  0.42750785     0.79090
H981        H  0.54533387  0.96896320  0.25820334     0.42130
H982        H  0.54942000  0.91589901  0.33079030     0.41100
H983        H  0.93935538  0.86648062  0.45635542     0.40770
H984        H  0.96756341  0.94039813  0.54347482     0.38710
H985        H  0.95448773  0.58390307  0.52776058     0.41840
H986        H  0.94172545  0.64082485  0.43486165     0.36620
H987        H  0.51601017  0.70535980  0.34816822     0.42740
H988        H  0.57075251  0.63926838  0.25962330     0.39160
H989        H  0.92961711  0.94726326  0.56202484     0.44070
H990        H  0.98474809  0.68749741  0.43375641     0.42800
H991        H  0.57825527  0.60780430  0.22105741     0.42930
H992        H  0.51514386  0.86605419  0.34943750     0.43290
C993        C  0.57629591  0.53335044  0.61534875    -0.09440
C994        C  0.57078632  0.56946270  0.59242038     0.06750
C995        C  0.56813264  0.60565586  0.61932232    -0.03210
C996        C  0.57059885  0.60490753  0.66887723    -0.07660
C997        C  0.57185626  0.56616822  0.69177273     0.05870
C998        C  0.57482649  0.53036472  0.66497544    -0.02690
Br999      Br  0.06542326  0.97134224  0.69432656    -0.02380
H1000       H  0.57565108  0.00386568  0.59484140     0.09780
H1001       H  0.56585446  0.63100987  0.68966057     0.07800
Br1002     Br  0.55287603  0.65094032  0.59119561    -0.02810
C1003       C  0.43889554  0.55880154  0.11449922    -0.09440
C1004       C  0.91489524  0.51523966  0.09139420     0.06750
C1005       C  0.88546771  0.97597818  0.11810692    -0.03210
C1006       C  0.88929653  0.97670505  0.16780000    -0.07660
C1007       C  0.92047509  0.51735366  0.18998047     0.05870
C1008       C  0.44119470  0.56025877  0.16391256    -0.02690
Br1009     Br  0.47524324  0.62058797  0.19395971    -0.02380
H1010       H  0.45923074  0.59049475  0.09406136     0.09780
H1011       H  0.87027165  0.94469839  0.18840676     0.07800
Br1012     Br  0.84154122  0.92070181  0.08899501    -0.02810
C1013       C  0.62519008  0.76700635  0.44138005    -0.09440
C1014       C  0.62324281  0.72754043  0.46605604     0.06750
C1015       C  0.64175500  0.73480883  0.51117599    -0.03210
C1016       C  0.65593901  0.77931922  0.53356008    -0.07660
C1017       C  0.65947099  0.82046598  0.50900624     0.05870
C1018       C  0.64487053  0.81293624  0.46043767    -0.02690
Br1019     Br  0.65442602  0.86188068  0.41345037    -0.02380
H1020       H  0.61245751  0.76220114  0.40564862     0.09780
H1021       H  0.66504472  0.78060973  0.57001369     0.07800
Br1022     Br  0.65153776  0.68684448  0.54252564    -0.02810
C1023       C  0.59258934  0.90098091  0.49581162    -0.09440
C1024       C  0.61359047  0.94489625  0.47165482     0.06750
C1025       C  0.65774668  0.96804797  0.47143027    -0.03210
C1026       C  0.67965839  0.94549928  0.49144403    -0.07660
C1027       C  0.65899606  0.89996683  0.51416732     0.05870
C1028       C  0.61422223  0.87907152  0.51763514    -0.02690
Br1029     Br  0.57938760  0.82036820  0.55153110    -0.02380
H1030       H  0.55867499  0.88345065  0.49813903     0.09780
H1031       H  0.71311121  0.96384895  0.48681624     0.07800
Br1032     Br  0.69059270  0.52933492  0.44180835    -0.02810
C1033       C  0.74189325  0.87409372  0.47451961    -0.09440
C1034       C  0.72983553  0.89637785  0.51149226     0.06750
C1035       C  0.76228202  0.94048226  0.52919074    -0.03210
C1036       C  0.80286577  0.96025613  0.50937083    -0.07660
C1037       C  0.81265273  0.93829007  0.47122445     0.05870
C1038       C  0.78155944  0.89492621  0.45375862    -0.02690
Br1039     Br  0.79161544  0.86003347  0.40325884    -0.02380
H1040       H  0.72130363  0.83942157  0.46055519     0.09780
H1041       H  0.82695404  0.99361930  0.52347366     0.07800
Br1042     Br  0.75468501  0.97748979  0.57933621    -0.02810
C1043       C  0.68209882  0.78737295  0.78340147    -0.09440
C1044       C  0.65971901  0.80871381  0.76031401     0.06750
C1045       C  0.61740056  0.77625805  0.74819012    -0.03210
C1046       C  0.59718607  0.73062347  0.76896036    -0.07660
C1047       C  0.61802498  0.71390136  0.79965300     0.05870
C1048       C  0.66159868  0.74154007  0.80437776    -0.02690
Br1049     Br  0.69417772  0.72087914  0.84276035    -0.02380
H1050       H  0.71560726  0.80668610  0.78779444     0.09780
H1051       H  0.56411443  0.70830151  0.76220410     0.07800
Br1052     Br  0.58202416  0.79067120  0.70792935    -0.02810
C1053       C  0.62157297  0.86305045  0.80529021    -0.09440
C1054       C  0.65715065  0.88968000  0.77600872     0.06750
C1055       C  0.67202573  0.94053842  0.77552441    -0.03210
C1056       C  0.64925973  0.96098154  0.79855067    -0.07660
C1057       C  0.61210679  0.93304811  0.82423828     0.05870
C1058       C  0.59963397  0.88350403  0.82902997    -0.02690
Br1059     Br  0.55406532  0.83979438  0.86899513    -0.02380
H1060       H  0.61085607  0.82570077  0.81254502     0.09780
H1061       H  0.66023585  0.99915612  0.79490827     0.07800
Br1062     Br  0.71988542  0.98513135  0.73930831    -0.02810
C1063       C  0.76191128  0.91592795  0.74173256    -0.09440
C1064       C  0.72624857  0.89004062  0.77113280     0.06710
C1065       C  0.73417924  0.88987755  0.82129554    -0.03210
C1066       C  0.77523562  0.91045865  0.83862547    -0.07660
C1067       C  0.81018933  0.93317687  0.80835166     0.05870
C1068       C  0.80280472  0.93679699  0.75922354    -0.02690
Br1069     Br  0.84594554  0.97129710  0.71252914    -0.02380
H1070       H  0.75883733  0.92248241  0.70456478     0.09780
H1071       H  0.77971696  0.90800441  0.87656047     0.07800
Br1072     Br  0.69187312  0.86046902  0.87011639    -0.02810
C1073       C  0.66250101  0.89053567  0.61536653    -0.09440
C1074       C  0.68416653  0.87098827  0.58834013     0.06750
C1075       C  0.70741126  0.85356288  0.61610605    -0.03210
C1076       C  0.70323330  0.85002206  0.66637253    -0.07660
C1077       C  0.68071452  0.86888812  0.69314245     0.05870
C1078       C  0.65922947  0.88851605  0.66523927    -0.02690
Br1079     Br  0.61860376  0.90775805  0.68669727    -0.02380
H1080       H  0.64700019  0.90836481  0.59816586     0.09780
H1081       H  0.71994662  0.83427640  0.68537521     0.07800
Br1082     Br  0.74781000  0.83591886  0.58962265    -0.02810
C1083       C  0.73825248  0.67128176  0.25848806    -0.09440
C1084       C  0.76486081  0.65142683  0.27228593     0.06750
C1085       C  0.74666981  0.61073132  0.30428202    -0.03210
C1086       C  0.70504391  0.59304667  0.31983114    -0.07660
C1087       C  0.68045366  0.61446059  0.30670799     0.05870
C1088       C  0.69724049  0.65381511  0.27551861    -0.02690
Br1089     Br  0.66673706  0.68752052  0.25773430    -0.02380
H1090       H  0.75008907  0.70195042  0.23463061     0.09780
H1091       H  0.69163070  0.56237605  0.34361311     0.07800
Br1092     Br  0.77347653  0.57890935  0.33752197    -0.02810
C1093       C  0.84444201  0.78790400  0.33898162    -0.09440
C1094       C  0.86697021  0.82626267  0.30847279     0.06750
C1095       C  0.86513803  0.81837708  0.25899666    -0.03210
C1096       C  0.84321758  0.77168541  0.24110289    -0.07660
C1097       C  0.82672838  0.73127557  0.27197544     0.05870
C1098       C  0.82486053  0.74098448  0.32198320    -0.02690
Br1099     Br  0.80374021  0.69459538  0.37268027    -0.02380
H1100       H  0.84521708  0.79421379  0.37712380     0.09780
H1101       H  0.84181919  0.76783015  0.20285670     0.07800
Br1102     Br  0.89621539  0.86950250  0.21491559    -0.02810
C1103       C  0.83095463  0.61120663  0.25275526    -0.09440
C1104       C  0.84016745  0.65754143  0.26944501     0.06750
C1105       C  0.87669759  0.68090252  0.29865087    -0.03210
C1106       C  0.89503749  0.65472498  0.31788943    -0.07660
C1107       C  0.88294199  0.60735819  0.30496555     0.05870
C1108       C  0.85154370  0.58604771  0.27029284    -0.02690
Br1109     Br  0.83373023  0.52260507  0.24651020    -0.02380
H1110       H  0.80537459  0.59284480  0.22820897     0.09780
H1111       H  0.92072575  0.67287595  0.34244143     0.07800
Br1112     Br  0.91190119  0.74845256  0.30945426    -0.02810
C1113       C  0.74467900  0.60840583  0.98299333    -0.09440
C1114       C  0.75896179  0.64661714  0.01632418     0.06750
C1115       C  0.72961350  0.66350460  0.02942222    -0.03210
C1116       C  0.68920538  0.64271336  0.01018950    -0.07660
C1117       C  0.67640564  0.60576756  0.97682114     0.05870
C1118       C  0.70448991  0.58849838  0.96341481    -0.02690
Br1119     Br  0.68925460  0.53657697  0.91924644    -0.02380
H1120       H  0.76494474  0.59480992  0.96910746     0.09780
H1121       H  0.66760913  0.65604837  0.02101236     0.07800
Br1122     Br  0.74068382  0.71364474  0.07482987    -0.02810
C1123       C  0.83885444  0.76479185  0.04384405    -0.09440
C1124       C  0.82270190  0.72356340  0.01438418     0.06750
C1125       C  0.82497822  0.73207692  0.96369761    -0.03210
C1126       C  0.84359575  0.77867765  0.94529733    -0.07660
C1127       C  0.86313434  0.81816358  0.97499531     0.05870
C1128       C  0.86162882  0.81092580  0.02458233    -0.02690
Br1129     Br  0.89778095  0.86075930  0.06652837    -0.02380
H1130       H  0.83682522  0.76210282  0.08218607     0.09780
H1131       H  0.84609165  0.78407211  0.90690307     0.07800
Br1132     Br  0.81011128  0.68411103  0.91500060    -0.02810
C1133       C  0.81901011  0.59902039  0.02410590    -0.09440
C1134       C  0.83345551  0.64875386  0.01772100     0.06750
C1135       C  0.87503291  0.67491517  0.99832063    -0.03210
C1136       C  0.89472939  0.65083074  0.97676013    -0.07660
C1137       C  0.87733827  0.60083529  0.97731780     0.05870
C1138       C  0.83949110  0.57486536  0.00333974    -0.02690
Br1139     Br  0.81332368  0.50672708  0.01271554    -0.02380
H1140       H  0.78999501  0.57806557  0.04333224     0.09780
H1141       H  0.92529146  0.67228167  0.96067139     0.07800
Br1142     Br  0.91287972  0.74229541  0.00511381    -0.02810
C1143       C  0.84423555  0.69405884  0.11575379    -0.09440
C1144       C  0.80582233  0.66838033  0.09186299     0.06750
C1145       C  0.77155774  0.63755298  0.12182421    -0.03210
C1146       C  0.77401651  0.64293165  0.17166146    -0.07660
C1147       C  0.81083953  0.67547103  0.19565236     0.05870
C1148       C  0.84731868  0.69743987  0.16583247    -0.02690
Br1149     Br  0.90352811  0.73201398  0.18875772    -0.02380
H1150       H  0.87261897  0.71307553  0.09501219     0.09780
H1151       H  0.74680976  0.61808754  0.19159972     0.07800
Br1152     Br  0.72274092  0.58061245  0.10155193    -0.02810
loop_ 
_geom_bond_atom_site_label_1 
_geom_bond_atom_site_label_2 
_geom_bond_distance 
_geom_bond_site_symmetry_2 
_ccdc_geom_bond_type 
C1          C250   1.573       .  S
C1          C260   1.571       .  S
C1          C270   1.575       .  S
C1          C280   1.582       .  S
C2          C220   1.579       .  S
C2          C233   1.573       .  S
C2          C240   1.559       .  S
C2          C283   1.596       .  S
C3          C180   1.588       .  S
C3          C190   1.579       .  S
C3          C200   1.581       .  S
C3          C213   1.589       .  S
C4          C153   1.581       .  S
C4          C163   1.581       .  S
C4          C170   1.577       .  S
C4          C210   1.595       .  S
O5          Zr17   2.442   1_654  S
O5          C583   1.291       .  A
O6          Zr43   2.396   1_554  S
O6          C295   1.279       .  A
C7          O581   1.291       .  A
C7          O294   1.279   1_545  A
C7          C140   1.463       .  S
O8         Zr596   2.441   1_455  S
O8           C10   1.289       .  A
O9          Zr44   2.448       .  S
O9           C10   1.290       .  A
C10         C183   1.488       .  S
O11         Zr20   2.447       .  S
O11          C13   1.291       .  A
O12        Zr331   2.425   1_545  S
O12          C13   1.284       .  A
C13         C273   1.500       .  S
O14         Zr17   2.446       .  S
O14          C16   1.288       .  A
O15         Zr44   2.431       .  S
O15          C16   1.288       .  A
C16         C253   1.480       .  S
Zr17         O18   2.434   1_556  S
Zr17         O19   2.435   1_546  S
Zr17         O24   2.374       .  S
Zr17         O47   2.369   1_545  S
Zr17        O599   2.357   1_455  S
Zr17        O913   2.367   1_445  S
O18          H61   0.990       .  S
O19          H64   0.990       .  S
O19         H348   0.990       .  S
Zr20        O584   2.441       .  S
Zr20         O22   2.434       .  S
Zr20        O597   2.436       .  S
Zr20         O23   2.347       .  S
Zr20         O48   2.377       .  S
Zr20        O600   2.377       .  S
Zr20        O626   2.357       .  S
O21        Zr596   2.436   1_455  S
O21          H62   0.990       .  S
O21          H65   0.990       .  S
O22          H55   0.990       .  S
O23        Zr593   2.357       .  S
O23        Zr331   2.387   1_545  S
O24         Zr44   2.392       .  S
O24        Zr596   2.377   1_455  S
O24          H51   0.966       .  S
O25        Zr613   2.432   1_455  S
O25         C315   1.284       .  A
O26         Zr44   2.458       .  S
O26          C27   1.293   1_545  A
C27         O313   1.284       .  A
C27         C481   1.504       .  S
O28        Zr328   2.425       .  S
O28          C30   1.283       .  A
O29         Zr43   2.449       .  S
O29          C30   1.292       .  A
C30         C203   1.499       .  S
O31         Zr40   2.416       .  S
O31         C609   1.283       .  A
O32         Zr44   2.402       .  S
O32          C33   1.281       .  A
C33         O607   1.283       .  A
C33         C133   1.445       .  S
O34         Zr37   2.431       .  S
O34          C36   1.286       .  A
O35         Zr43   2.444       .  S
O35          C36   1.289       .  A
C36         C263   1.471       .  S
Zr37        O601   2.432       .  S
Zr37         O38   2.435       .  S
Zr37        O615   2.434       .  S
Zr37         O46   2.377       .  S
Zr37         O49   2.371       .  S
Zr37        O621   2.368       .  S
Zr37        O911   2.376       .  S
O38          H58   0.990       .  S
O38          H63   0.990       .  S
O39        Zr613   2.434   1_455  S
O39          H59   0.990       .  S
Zr40        O316   2.425   1_545  S
Zr40         O42   2.435       .  S
Zr40        O329   2.434   1_545  S
Zr40         O48   2.365       .  S
Zr40        O334   2.372   1_545  S
Zr40        O909   2.370   1_545  S
Zr40        O626   2.357       .  S
O41        Zr328   2.434       .  S
O41          H57   0.990       .  S
O42          H56   0.990       .  S
O42          H66   0.990       .  S
Zr43        O300   2.425       .  S
Zr43         O46   2.377       .  S
Zr43         O49   2.395       .  S
Zr43        O311   2.387       .  S
Zr43        O336   2.386       .  S
Zr44         O47   2.381   1_545  S
Zr44         O50   2.384       .  S
Zr44        O333   2.392   1_545  S
O45        Zr613   2.368   1_455  S
O45        Zr904   2.370   1_455  S
O45        Zr332   2.392       .  S
O45          H53   0.966       .  S
O46        Zr328   2.372       .  S
O47        Zr901   2.376   1_455  S
O48        Zr331   2.386   1_545  S
O48          H52   0.966       .  S
O49        Zr881   2.367       .  S
O49          H54   0.965       .  S
O50        Zr596   2.357   1_455  S
O50        Zr616   2.357   1_455  S
H60         O307   0.990       .  S
O67         Zr79   2.416       .  S
O67          C69   1.285       .  A
O68        Zr393   2.423   1_545  S
O68          C69   1.284       .  A
C69         C243   1.482       .  S
O70         Zr82   2.432       .  S
O70          C72   1.285       .  A
O71        Zr106   2.437       .  S
O71          C72   1.289       .  A
C72         C223   1.474       .  S
O73         Zr82   2.438   1_655  S
O73         C651   1.289       .  A
O74        Zr105   2.392       .  S
O74         C363   1.279       .  A
C75         O649   1.289       .  A
C75         O362   1.279   1_545  A
C75         C143   1.459       .  S
O76        Zr655   2.411       .  S
O76          C78   1.283       .  A
O77        Zr106   2.448       .  S
O77          C78   1.290       .  A
C78         C150   1.479       .  S
Zr79        O652   2.411       .  S
Zr79         O81   2.437       .  S
Zr79        O656   2.435       .  S
Zr79         O85   2.345       .  S
Zr79        O111   2.366       .  S
Zr79        O662   2.369       .  S
Zr79        O685   2.355       .  S
O80        Zr655   2.435       .  S
O80         H123   0.990       .  S
O81         H122   0.990       .  S
O81         H126   0.990       .  S
Zr82         O83   2.435       .  S
Zr82         O84   2.434   1_545  S
Zr82         O86   2.370       .  S
Zr82        O112   2.378       .  S
Zr82        O661   2.351   1_455  S
Zr82        O974   2.366   1_445  S
O83         H124   0.990       .  S
O83         H127   0.990       .  S
O84         H405   0.990       .  S
O85        Zr658   2.351       .  S
O85        Zr393   2.376   1_545  S
O86        Zr106   2.383       .  S
O86        Zr655   2.369       .  S
O86         H113   0.966       .  S
O87         Zr99   2.420       .  S
O87         C665   1.284       .  A
O88        Zr106   2.407       .  S
O88          C89   1.282       .  A
C89         O663   1.284       .  A
C89         C130   1.449       .  S
O90        Zr102   2.457       .  S
O90          C92   1.291       .  A
O91        Zr105   2.419       .  S
O91          C92   1.284       .  A
C92         C230   1.471       .  S
O93        Zr678   2.460   1_455  S
O93         C383   1.293       .  A
O94        Zr106   2.436       .  S
O94          C95   1.288   1_545  A
C95         O381   1.293       .  A
C95         C448   1.492       .  S
O96        Zr387   2.424       .  S
O96          C98   1.284       .  A
O97        Zr105   2.432       .  S
O97          C98   1.288       .  A
C98         C173   1.475       .  S
Zr99        O384   2.424   1_545  S
Zr99        O101   2.434       .  S
Zr99        O388   2.436   1_545  S
Zr99        O111   2.366       .  S
Zr99        O971   2.364   1_545  S
Zr99        O396   2.376   1_545  S
Zr99        O685   2.364       .  S
O100       Zr387   2.436       .  S
O100        H120   0.990       .  S
O100        H125   0.990       .  S
O101        H121   0.990       .  S
Zr102       O669   2.460       .  S
Zr102       O103   2.434       .  S
Zr102       O680   2.435       .  S
Zr102       O108   2.382       .  S
Zr102       O110   2.375       .  S
Zr102       O683   2.373       .  S
Zr102       O976   2.380       .  S
O103        H119   0.990       .  S
O104       Zr678   2.435   1_455  S
O104        H118   0.990       .  S
O104        H128   0.990       .  S
Zr105       O356   2.423       .  S
Zr105       O108   2.380       .  S
Zr105       O110   2.394       .  S
Zr105       O373   2.376       .  S
Zr105       O399   2.381       .  S
Zr106       O109   2.382       .  S
Zr106       O112   2.386       .  S
Zr106       O395   2.391   1_545  S
O107       Zr963   2.364   1_455  S
O107       Zr678   2.373   1_455  S
O107       Zr394   2.391       .  S
O107        H115   0.965       .  S
O108       Zr387   2.376       .  S
O109       Zr655   2.355       .  S
O109       Zr675   2.364   1_455  S
O110       Zr946   2.366       .  S
O110        H114   0.966       .  S
O111       Zr393   2.381   1_545  S
O111        H116   0.966       .  S
O112       Zr966   2.380   1_445  S
H117        O372   0.990       .  S
C129        C130   1.399       .  A
C129        C134   1.391       .  A
C129        H424   1.084       .  S
C130        C131   1.408       .  A
C131        C132   1.391       .  A
C131       Br138   1.922       .  S
C132        C133   1.398       .  A
C132        H137   1.084       .  S
C133        C134   1.401       .  A
C134       Br999   1.913   1_545  S
Br135       C998   1.913       .  S
H136        C417   1.084       .  S
C139        C144   1.386       .  A
C139        C716   1.400       .  A
C139        H146   1.084       .  S
C140        C715   1.400       .  A
C140        C429   1.408   1_545  A
C141        C142   1.398       .  A
C141        C428   1.408       .  A
C141       Br148   1.915       .  S
C142        C431   1.402       .  A
C142        H147   1.082       .  S
C143        C430   1.402   1_545  A
C143        C720   1.404       .  A
C144        C719   1.404       .  A
C144       Br145   1.919       .  S
C149        C150   1.395       .  A
C149        C154   1.393       .  A
C149        H156   1.085       .  S
C150        C151   1.401       .  A
C151        C152   1.402       .  A
C151       Br158   1.918       .  S
C152        C153   1.419       .  A
C152        H157   1.069       .  S
C153        C154   1.441       .  A
C154       Br155   1.930       .  S
C159        C160   1.402       .  A
C159        C164   1.401       .  A
C159        H166   1.084       .  S
C160        C383   1.492       .  S
C160        C161   1.409       .  A
C161        C162   1.403       .  A
C161       Br456   1.918       .  S
C162        C163   1.421       .  A
C162        H167   1.074       .  S
C163        C164   1.434       .  A
C164       Br165   1.929       .  S
Br168       C449   1.918   1_545  S
C169        C170   1.426       .  A
C169        C174   1.388       .  A
C169        H176   1.073       .  S
C170        C171   1.431       .  A
C171        C172   1.405       .  A
C171       Br178   1.924       .  S
C172        C173   1.403       .  A
C172        H177   1.084       .  S
C173        C174   1.397       .  A
C174       Br175   1.926       .  S
C179        C180   1.425       .  A
C179        C184   1.407       .  A
C179        H186   1.078       .  S
C180        C181   1.431       .  A
C181        C182   1.399       .  A
C181       Br188   1.912       .  S
C182        C183   1.398       .  A
C182        H187   1.084       .  S
C183        C184   1.405       .  A
C184       Br185   1.919       .  S
C189        C190   1.415       .  A
C189        C194   1.396       .  A
C189        H196   1.074       .  S
C190        C191   1.436       .  A
C191        C192   1.410       .  A
C191       Br198   1.923       .  S
C192        C193   1.405       .  A
C192        H197   1.083       .  S
C193        C315   1.504       .  S
C193        C194   1.417       .  A
C194       Br195   1.927       .  S
C199        C200   1.415       .  A
C199        C204   1.398       .  A
C199        H206   1.077       .  S
C200        C201   1.435       .  A
C201        C202   1.402       .  A
C201       Br208   1.925       .  S
C202        C203   1.401       .  A
C202        H207   1.083       .  S
C203        C204   1.417       .  A
C204       Br205   1.925       .  S
C209        C210   1.415       .  A
C209        C214   1.399       .  A
C209        H216   1.074       .  S
C210        C211   1.429       .  A
C211        C212   1.413       .  A
C211       Br218   1.927       .  S
C212        C213   1.419       .  A
C212        H217   1.083       .  S
C213        C214   1.430       .  A
C214       Br215   1.919       .  S
C219        C220   1.422       .  A
C219        C224   1.395       .  A
C219        H226   1.084       .  S
C220        C221   1.444       .  A
C221        C222   1.401       .  A
C221       Br228   1.927       .  S
C222        C223   1.391       .  A
C222        H227   1.082       .  S
C223        C224   1.400       .  A
C224       Br225   1.917       .  S
C229        C230   1.388       .  A
C229        C234   1.397       .  A
C229        H236   1.085       .  S
C230        C231   1.404       .  A
C231        C232   1.404       .  A
C231       Br238   1.917       .  S
C232        C233   1.418       .  A
C232        H237   1.077       .  S
C233        C234   1.441       .  A
C234       Br235   1.918       .  S
C239        C240   1.420       .  A
C239        C244   1.404       .  A
C239        H246   1.082       .  S
C240        C241   1.435       .  A
C241        C242   1.385       .  A
C241       Br248   1.933       .  S
C242        C243   1.397       .  A
C242        H247   1.084       .  S
C243        C244   1.409       .  A
C244       Br245   1.917       .  S
C249        C250   1.422   1_556  A
C249        C254   1.400       .  A
C249        H256   1.075       .  S
C250        C251   1.433       .  A
C251        C252   1.402       .  A
C251       Br258   1.924       .  S
C252        C253   1.398   1_554  A
C252        H257   1.084       .  S
C253        C254   1.403       .  A
C254       Br255   1.922       .  S
C259        C260   1.420       .  A
C259        C264   1.401       .  A
C259        H266   1.076       .  S
C260        C261   1.438   1_554  A
C261        C262   1.397       .  A
C261       Br268   1.923       .  S
C262        C263   1.391       .  A
C262        H267   1.084       .  S
C263        C264   1.403   1_556  A
C264       Br265   1.916       .  S
C269        C270   1.415       .  A
C269        C274   1.407       .  A
C269        H276   1.081       .  S
C270        C271   1.435   1_554  A
C271        C272   1.393       .  A
C271       Br278   1.930   1_556  S
C272        C273   1.400       .  A
C272        H277   1.083       .  S
C273        C274   1.417   1_556  A
C274       Br275   1.921       .  S
C279        C280   1.412       .  A
C279        C284   1.407       .  A
C279        H286   1.079       .  S
C280        C281   1.429       .  A
C281        C282   1.404       .  A
C281       Br288   1.930       .  S
C282        C283   1.419       .  A
C282        H287   1.079       .  S
C283        C284   1.429       .  A
C284       Br285   1.916       .  S
C289        C538   1.573       .  S
C289        C548   1.571       .  S
C289        C558   1.575       .  S
C289        C568   1.582       .  S
C290        C508   1.579       .  S
C290        C521   1.573       .  S
C290        C528   1.559       .  S
C290        C571   1.596       .  S
C291        C468   1.588       .  S
C291        C478   1.579       .  S
C291        C488   1.581       .  S
C291        C501   1.589       .  S
C292        C441   1.581       .  S
C292        C451   1.581       .  S
C292        C458   1.577       .  S
C292        C498   1.595       .  S
O293       Zr305   2.442   1_654  S
O293        C871   1.291       .  A
O294       Zr331   2.396   1_554  S
C295        O869   1.291       .  A
C295        C428   1.463       .  S
O296       Zr884   2.441   1_455  S
O296        C298   1.289       .  A
O297       Zr332   2.448       .  S
O297        C298   1.290       .  A
C298        C471   1.488       .  S
O299       Zr308   2.447       .  S
O299        C301   1.291       .  A
O300        C301   1.284       .  A
C301        C561   1.500       .  S
O302       Zr305   2.446       .  S
O302        C304   1.288       .  A
O303       Zr332   2.431       .  S
O303        C304   1.288       .  A
C304        C541   1.480       .  S
Zr305       O306   2.434   1_556  S
Zr305       O307   2.435   1_556  S
Zr305       O887   2.357   1_455  S
Zr305       O312   2.374       .  S
Zr305       O335   2.369       .  S
Zr305       O625   2.367   1_455  S
O306        H349   0.990       .  S
O307        H352   0.990       .  S
Zr308       O872   2.441       .  S
Zr308       O885   2.436       .  S
Zr308       O310   2.434       .  S
Zr308       O888   2.377       .  S
Zr308       O311   2.347       .  S
Zr308       O336   2.377       .  S
Zr308       O914   2.357       .  S
O309       Zr884   2.436   1_455  S
O309        H350   0.990       .  S
O309        H353   0.990       .  S
O310        H343   0.990       .  S
O311       Zr881   2.357       .  S
O312       Zr884   2.377   1_455  S
O312       Zr332   2.392       .  S
O312        H339   0.966       .  S
O313       Zr901   2.432   1_455  S
O314       Zr332   2.458       .  S
O314        C315   1.293       .  A
O316        C318   1.283       .  A
O317       Zr331   2.448       .  S
O317        C318   1.292       .  A
C318        C491   1.499       .  S
O319       Zr328   2.416       .  S
O319        C897   1.283       .  A
O320       Zr332   2.402       .  S
O320        C321   1.281       .  A
C321        O895   1.283       .  A
C321        C421   1.445       .  S
O322       Zr325   2.431       .  S
O322        C324   1.286       .  A
O323       Zr331   2.444       .  S
O323        C324   1.289       .  A
C324        C551   1.471       .  S
Zr325       O889   2.432       .  S
Zr325       O326   2.435       .  S
Zr325       O903   2.434       .  S
Zr325       O909   2.368       .  S
Zr325       O334   2.377       .  S
Zr325       O337   2.371       .  S
Zr325       O623   2.376       .  S
O326        H346   0.990       .  S
O326        H351   0.990       .  S
O327       Zr901   2.434   1_455  S
O327        H347   0.990       .  S
Zr328       O330   2.435       .  S
Zr328       O621   2.370       .  S
Zr328       O914   2.357       .  S
Zr328       O336   2.365       .  S
O329        H345   0.990       .  S
O330        H344   0.990       .  S
O330        H354   0.990       .  S
Zr331       O334   2.377       .  S
Zr331       O337   2.395       .  S
Zr332       O335   2.381       .  S
Zr332       O338   2.384       .  S
O333       Zr901   2.368   1_455  S
O333       Zr616   2.370   1_465  S
O333        H341   0.966       .  S
O335       Zr613   2.376   1_455  S
O336        H340   0.966       .  S
O337       Zr593   2.367   1_565  S
O337        H342   0.965       .  S
O338       Zr884   2.357   1_455  S
O338       Zr904   2.357   1_455  S
O355       Zr367   2.416       .  S
O355        C357   1.285       .  A
O356        C357   1.284       .  A
C357        C531   1.482       .  S
O358       Zr370   2.432       .  S
O358        C360   1.285       .  A
O359       Zr394   2.437       .  S
O359        C360   1.289       .  A
C360        C511   1.474       .  S
O361       Zr370   2.438   1_655  S
O361        C939   1.289       .  A
O362       Zr393   2.392       .  S
C363        O937   1.289       .  A
C363        C431   1.459       .  S
O364       Zr943   2.411       .  S
O364        C366   1.283       .  A
O365       Zr394   2.448       .  S
O365        C366   1.290       .  A
C366        C438   1.479       .  S
Zr367       O940   2.411       .  S
Zr367       O944   2.435       .  S
Zr367       O369   2.437       .  S
Zr367       O373   2.345       .  S
Zr367       O950   2.369       .  S
Zr367       O973   2.355       .  S
Zr367       O399   2.366       .  S
O368       Zr943   2.435       .  S
O368        H411   0.990       .  S
O369        H410   0.990       .  S
O369        H414   0.990       .  S
Zr370       O371   2.435       .  S
Zr370       O372   2.434       .  S
Zr370       O374   2.370       .  S
Zr370       O949   2.351   1_455  S
Zr370       O686   2.366   1_455  S
Zr370       O400   2.378       .  S
O371        H412   0.990       .  S
O371        H415   0.990       .  S
O373       Zr946   2.351       .  S
O374       Zr943   2.369       .  S
O374       Zr394   2.383       .  S
O374        H401   0.966       .  S
O375       Zr387   2.420       .  S
O375        C953   1.284       .  A
O376       Zr394   2.407       .  S
O376        C377   1.282       .  A
C377        O951   1.284       .  A
C377        C418   1.449       .  S
O378       Zr390   2.457       .  S
O378        C380   1.291       .  A
O379       Zr393   2.419       .  S
O379        C380   1.284       .  A
C380        C518   1.471       .  S
O381       Zr966   2.460   1_455  S
O382       Zr394   2.436       .  S
O382        C383   1.288       .  A
O384        C386   1.284       .  A
O385       Zr393   2.432       .  S
O385        C386   1.288       .  A
C386        C461   1.475       .  S
Zr387       O389   2.434       .  S
Zr387       O683   2.364       .  S
Zr387       O399   2.366       .  S
Zr387       O973   2.364       .  S
O388        H408   0.990       .  S
O388        H413   0.990       .  S
O389        H409   0.990       .  S
Zr390       O957   2.460       .  S
Zr390       O391   2.434       .  S
Zr390       O968   2.435       .  S
Zr390       O396   2.382       .  S
Zr390       O971   2.373       .  S
Zr390       O688   2.380   1_565  S
Zr390       O398   2.375       .  S
O391        H407   0.990       .  S
O392       Zr966   2.435   1_455  S
O392        H406   0.990       .  S
O392        H416   0.990       .  S
Zr393       O396   2.380       .  S
Zr393       O398   2.394       .  S
Zr394       O397   2.382       .  S
Zr394       O400   2.386       .  S
O395       Zr675   2.364   1_465  S
O395       Zr966   2.373   1_455  S
O395        H403   0.965       .  S
O397       Zr943   2.355       .  S
O397       Zr963   2.364   1_455  S
O398       Zr658   2.366   1_565  S
O398        H402   0.966       .  S
O399        H404   0.966       .  S
O400       Zr678   2.380   1_455  S
C417        C418   1.399       .  A
C417        C422   1.391       .  A
C418        C419   1.408       .  A
C419        C420   1.391       .  A
C419       Br426   1.922       .  S
C420        C421   1.398       .  A
C420        H425   1.084       .  S
C421        C422   1.401       .  A
C422       Br711   1.913       .  S
Br423       C710   1.913   1_565  S
C427       C1004   1.400       .  A
C427        C432   1.386       .  A
C427        H434   1.084       .  S
C428       C1003   1.400       .  A
C429        C430   1.398       .  A
C429       Br436   1.915       .  S
C430        H435   1.082       .  S
C431       C1008   1.404       .  A
C432       C1007   1.404       .  A
C432       Br433   1.920       .  S
C437        C438   1.395       .  A
C437        C442   1.393       .  A
C437        H444   1.085       .  S
C438        C439   1.401       .  A
C439        C440   1.402       .  A
C439       Br446   1.918       .  S
C440        C441   1.419       .  A
C440        H445   1.069       .  S
C441        C442   1.441       .  A
C442       Br443   1.930       .  S
C447        C448   1.402       .  A
C447        C452   1.401       .  A
C447        H454   1.084       .  S
C448        C449   1.409       .  A
C449        C450   1.403       .  A
C450        C451   1.421       .  A
C450        H455   1.074       .  S
C451        C452   1.434       .  A
C452       Br453   1.929       .  S
C457        C458   1.426       .  A
C457        C462   1.388       .  A
C457        H464   1.073       .  S
C458        C459   1.431       .  A
C459        C460   1.405       .  A
C459       Br466   1.924       .  S
C460        C461   1.403       .  A
C460        H465   1.084       .  S
C461        C462   1.397       .  A
C462       Br463   1.926       .  S
C467        C468   1.425       .  A
C467        C472   1.407       .  A
C467        H474   1.078       .  S
C468        C469   1.431       .  A
C469        C470   1.399       .  A
C469       Br476   1.913       .  S
C470        C471   1.398       .  A
C470        H475   1.084       .  S
C471        C472   1.405       .  A
C472       Br473   1.919       .  S
C477        C478   1.415       .  A
C477        C482   1.396       .  A
C477        H484   1.074       .  S
C478        C479   1.436       .  A
C479        C480   1.410       .  A
C479       Br486   1.923       .  S
C480        C481   1.405       .  A
C480        H485   1.083       .  S
C481        C482   1.417       .  A
C482       Br483   1.927       .  S
C487        C488   1.415       .  A
C487        C492   1.398       .  A
C487        H494   1.077       .  S
C488        C489   1.435       .  A
C489        C490   1.402       .  A
C489       Br496   1.925       .  S
C490        C491   1.401       .  A
C490        H495   1.083       .  S
C491        C492   1.417       .  A
C492       Br493   1.925       .  S
C497        C498   1.415       .  A
C497        C502   1.399       .  A
C497        H504   1.074       .  S
C498        C499   1.429       .  A
C499        C500   1.413       .  A
C499       Br506   1.927       .  S
C500        C501   1.419       .  A
C500        H505   1.083       .  S
C501        C502   1.430       .  A
C502       Br503   1.919       .  S
C507        C508   1.422       .  A
C507        C512   1.395       .  A
C507        H514   1.084       .  S
C508        C509   1.444       .  A
C509        C510   1.401       .  A
C509       Br516   1.927       .  S
C510        C511   1.391       .  A
C510        H515   1.082       .  S
C511        C512   1.400       .  A
C512       Br513   1.917       .  S
C517        C518   1.388       .  A
C517        C522   1.397       .  A
C517        H524   1.085       .  S
C518        C519   1.404       .  A
C519        C520   1.404       .  A
C519       Br526   1.917       .  S
C520        C521   1.418       .  A
C520        H525   1.077       .  S
C521        C522   1.441       .  A
C522       Br523   1.918       .  S
C527        C528   1.420       .  A
C527        C532   1.404       .  A
C527        H534   1.082       .  S
C528        C529   1.435       .  A
C529        C530   1.385       .  A
C529       Br536   1.933       .  S
C530        C531   1.397       .  A
C530        H535   1.084       .  S
C531        C532   1.409       .  A
C532       Br533   1.917       .  S
C537        C538   1.422   1_556  A
C537        C542   1.400       .  A
C537        H544   1.075       .  S
C538        C539   1.433       .  A
C539        C540   1.402       .  A
C539       Br546   1.924       .  S
C540        C541   1.398   1_554  A
C540        H545   1.084       .  S
C541        C542   1.403       .  A
C542       Br543   1.922       .  S
C547        C548   1.420       .  A
C547        C552   1.401       .  A
C547        H554   1.076       .  S
C548        C549   1.438   1_554  A
C549        C550   1.397       .  A
C549       Br556   1.923       .  S
C550        C551   1.391       .  A
C550        H555   1.084       .  S
C551        C552   1.403   1_556  A
C552       Br553   1.916       .  S
C557        C558   1.415       .  A
C557        C562   1.407       .  A
C557        H564   1.081       .  S
C558        C559   1.435   1_554  A
C559        C560   1.393       .  A
C559       Br566   1.930   1_556  S
C560        C561   1.400       .  A
C560        H565   1.083       .  S
C561        C562   1.417   1_556  A
C562       Br563   1.921       .  S
C567        C568   1.412       .  A
C567        C572   1.407       .  A
C567        H574   1.079       .  S
C568        C569   1.429       .  A
C569        C570   1.404       .  A
C569       Br576   1.930       .  S
C570        C571   1.419       .  A
C570        H575   1.079       .  S
C571        C572   1.429       .  A
C572       Br573   1.916       .  S
C577        C826   1.573       .  S
C577        C836   1.571       .  S
C577        C846   1.575       .  S
C577        C856   1.582       .  S
C578        C796   1.579       .  S
C578        C809   1.573       .  S
C578        C816   1.559       .  S
C578        C859   1.596       .  S
C579        C756   1.588       .  S
C579        C766   1.579       .  S
C579        C776   1.581       .  S
C579        C789   1.589       .  S
C580        C729   1.581       .  S
C580        C739   1.581       .  S
C580        C746   1.577       .  S
C580        C786   1.595       .  S
O581       Zr593   2.442   1_554  S
O582       Zr619   2.396   1_554  S
O582        C871   1.279       .  A
C583        O870   1.279   1_545  A
C583        C716   1.463       .  S
O584        C586   1.289       .  A
O585       Zr620   2.448       .  S
O585        C586   1.290       .  A
C586        C759   1.488       .  S
O587       Zr596   2.447       .  S
O587        C589   1.291       .  A
O588       Zr907   2.425   1_545  S
O588        C589   1.284       .  A
C589        C849   1.500       .  S
O590       Zr593   2.446       .  S
O590        C592   1.288       .  A
O591       Zr620   2.431       .  S
O591        C592   1.288       .  A
C592        C829   1.480       .  S
Zr593       O594   2.434   1_556  S
Zr593       O595   2.435   1_546  S
Zr593       O600   2.374       .  S
Zr593       O623   2.369   1_545  S
O594        H637   0.990       .  S
O595        H924   0.990       .  S
O595        H640   0.990       .  S
Zr596       O598   2.434       .  S
Zr596       O599   2.347       .  S
Zr596       O624   2.377       .  S
O597        H638   0.990       .  S
O597        H641   0.990       .  S
O598        H631   0.990       .  S
O599       Zr907   2.387   1_545  S
O600       Zr620   2.392       .  S
O600        H627   0.966       .  S
O601        C891   1.284       .  A
O602       Zr620   2.458       .  S
O602        C603   1.293   1_545  A
C603        O889   1.284       .  A
C603       C1057   1.504       .  S
O604       Zr904   2.425       .  S
O604        C606   1.283       .  A
O605       Zr619   2.449       .  S
O605        C606   1.292       .  A
C606        C779   1.499       .  S
O607       Zr616   2.416   1_455  S
O608       Zr620   2.402       .  S
O608        C609   1.281       .  A
C609        C709   1.445       .  S
O610       Zr613   2.431       .  S
O610        C612   1.286       .  A
O611       Zr619   2.444       .  S
O611        C612   1.289       .  A
C612        C839   1.471       .  S
Zr613       O614   2.435       .  S
Zr613       O622   2.377       .  S
Zr613       O625   2.371       .  S
O614        H634   0.990       .  S
O614        H639   0.990       .  S
O615        H635   0.990       .  S
Zr616       O892   2.425   1_545  S
Zr616       O905   2.434   1_545  S
Zr616       O618   2.435       .  S
Zr616       O910   2.372   1_545  S
Zr616       O624   2.365       .  S
O617       Zr904   2.434       .  S
O617        H633   0.990       .  S
O618        H632   0.990       .  S
O618        H642   0.990       .  S
Zr619       O876   2.425       .  S
Zr619       O887   2.387       .  S
Zr619       O622   2.377       .  S
Zr619       O912   2.386       .  S
Zr619       O625   2.395       .  S
Zr620       O909   2.392   1_545  S
Zr620       O623   2.381   1_545  S
Zr620       O626   2.384       .  S
O621       Zr908   2.392       .  S
O621        H629   0.966       .  S
O622       Zr904   2.372       .  S
O624       Zr907   2.386   1_545  S
O624        H628   0.966       .  S
O625        H630   0.965       .  S
H636        O883   0.990       .  S
O643       Zr655   2.416   1_655  S
O643        C645   1.285       .  A
O644       Zr969   2.423   1_545  S
O644        C645   1.284       .  A
C645        C819   1.482       .  S
O646       Zr658   2.432       .  S
O646        C648   1.285       .  A
O647       Zr682   2.437       .  S
O647        C648   1.289       .  A
C648        C799   1.474       .  S
O649       Zr658   2.438       .  S
O650       Zr681   2.392       .  S
O650        C939   1.279       .  A
C651        O938   1.279   1_545  A
C651        C719   1.459       .  S
O652        C654   1.283       .  A
O653       Zr682   2.448       .  S
O653        C654   1.290       .  A
C654        C726   1.479       .  S
Zr655       O657   2.437   1_455  S
Zr655       O661   2.345   1_455  S
Zr655       O687   2.366   1_455  S
O656        H699   0.990       .  S
O657        H698   0.990       .  S
O657        H702   0.990       .  S
Zr658       O659   2.435       .  S
Zr658       O660   2.434   1_545  S
Zr658       O662   2.370       .  S
Zr658       O688   2.378       .  S
O659        H700   0.990       .  S
O659        H703   0.990       .  S
O660        H981   0.990       .  S
O661       Zr969   2.376   1_545  S
O662       Zr682   2.383       .  S
O662        H689   0.966       .  S
O663       Zr675   2.420   1_455  S
O664       Zr682   2.407       .  S
O664        C665   1.282       .  A
C665        C706   1.449       .  S
O666       Zr678   2.457       .  S
O666        C668   1.291       .  A
O667       Zr681   2.419       .  S
O667        C668   1.284       .  A
C668        C806   1.471       .  S
O669        C959   1.293       .  A
O670       Zr682   2.436       .  S
O670        C671   1.288   1_545  A
C671        O957   1.293       .  A
C671       C1024   1.492       .  S
O672       Zr963   2.424       .  S
O672        C674   1.284       .  A
O673       Zr681   2.432       .  S
O673        C674   1.288       .  A
C674        C749   1.475       .  S
Zr675       O960   2.424   1_545  S
Zr675       O964   2.436   1_545  S
Zr675       O677   2.434       .  S
Zr675       O972   2.376   1_545  S
Zr675       O687   2.366       .  S
O676       Zr963   2.436       .  S
O676        H696   0.990       .  S
O676        H701   0.990       .  S
O677        H697   0.990       .  S
Zr678       O679   2.434       .  S
Zr678       O684   2.382       .  S
Zr678       O686   2.375       .  S
O679        H695   0.990       .  S
O680        H694   0.990       .  S
O680        H704   0.990       .  S
Zr681       O932   2.423       .  S
Zr681       O949   2.376       .  S
Zr681       O684   2.380       .  S
Zr681       O686   2.394       .  S
Zr681       O975   2.381       .  S
Zr682       O971   2.391   1_545  S
Zr682       O685   2.382       .  S
Zr682       O688   2.386       .  S
O683       Zr970   2.391       .  S
O683        H691   0.965       .  S
O684       Zr963   2.376       .  S
O686        H690   0.966       .  S
O687       Zr969   2.381   1_545  S
O687        H692   0.966       .  S
H693        O948   0.990       .  S
C705        C706   1.399       .  A
C705        C710   1.391       .  A
C705       H1000   1.084       .  S
C706        C707   1.408       .  A
C707        C708   1.391       .  A
C707       Br714   1.922       .  S
C708        C709   1.398       .  A
C708        H713   1.084       .  S
C709        C710   1.401       .  A
H712        C993   1.084       .  S
C715        C720   1.386       .  A
C715        H722   1.084       .  S
C716       C1005   1.408   1_545  A
C717       C1004   1.408       .  A
C717        C718   1.398       .  A
C717       Br724   1.915       .  S
C718       C1007   1.402       .  A
C718        H723   1.082       .  S
C719       C1006   1.402   1_545  A
C720       Br721   1.919       .  S
C725        C726   1.395       .  A
C725        C730   1.393       .  A
C725        H732   1.085       .  S
C726        C727   1.401       .  A
C727        C728   1.402       .  A
C727       Br734   1.918       .  S
C728        C729   1.419       .  A
C728        H733   1.069       .  S
C729        C730   1.441       .  A
C730       Br731   1.930       .  S
C735        C736   1.402       .  A
C735        C740   1.401       .  A
C735        H742   1.084       .  S
C736        C959   1.492       .  S
C736        C737   1.409       .  A
C737        C738   1.403       .  A
C737      Br1032   1.918       .  S
C738        C739   1.421       .  A
C738        H743   1.074       .  S
C739        C740   1.434       .  A
C740       Br741   1.929       .  S
Br744      C1025   1.918   1_545  S
C745        C746   1.426       .  A
C745        C750   1.388       .  A
C745        H752   1.073       .  S
C746        C747   1.431       .  A
C747        C748   1.405       .  A
C747       Br754   1.924       .  S
C748        C749   1.403       .  A
C748        H753   1.084       .  S
C749        C750   1.397       .  A
C750       Br751   1.926       .  S
C755        C756   1.425       .  A
C755        C760   1.407       .  A
C755        H762   1.078       .  S
C756        C757   1.431       .  A
C757        C758   1.399       .  A
C757       Br764   1.912       .  S
C758        C759   1.398       .  A
C758        H763   1.084       .  S
C759        C760   1.405       .  A
C760       Br761   1.919       .  S
C765        C766   1.415       .  A
C765        C770   1.396       .  A
C765        H772   1.074       .  S
C766        C767   1.436       .  A
C767        C768   1.410       .  A
C767       Br774   1.923       .  S
C768        C769   1.405       .  A
C768        H773   1.083       .  S
C769        C891   1.504       .  S
C769        C770   1.417       .  A
C770       Br771   1.927       .  S
C775        C776   1.415       .  A
C775        C780   1.398       .  A
C775        H782   1.077       .  S
C776        C777   1.435       .  A
C777        C778   1.402       .  A
C777       Br784   1.925       .  S
C778        C779   1.401       .  A
C778        H783   1.083       .  S
C779        C780   1.417       .  A
C780       Br781   1.925       .  S
C785        C786   1.415       .  A
C785        C790   1.399       .  A
C785        H792   1.074       .  S
C786        C787   1.429       .  A
C787        C788   1.413       .  A
C787       Br794   1.927       .  S
C788        C789   1.419       .  A
C788        H793   1.083       .  S
C789        C790   1.430       .  A
C790       Br791   1.919       .  S
C795        C796   1.422       .  A
C795        C800   1.395       .  A
C795        H802   1.084       .  S
C796        C797   1.444       .  A
C797        C798   1.401       .  A
C797       Br804   1.927       .  S
C798        C799   1.391       .  A
C798        H803   1.082       .  S
C799        C800   1.400       .  A
C800       Br801   1.917       .  S
C805        C806   1.388       .  A
C805        C810   1.397       .  A
C805        H812   1.085       .  S
C806        C807   1.404       .  A
C807        C808   1.404       .  A
C807       Br814   1.917       .  S
C808        C809   1.418       .  A
C808        H813   1.077       .  S
C809        C810   1.441       .  A
C810       Br811   1.918       .  S
C815        C816   1.420       .  A
C815        C820   1.404       .  A
C815        H822   1.082       .  S
C816        C817   1.435       .  A
C817        C818   1.385       .  A
C817       Br824   1.933       .  S
C818        C819   1.397       .  A
C818        H823   1.084       .  S
C819        C820   1.409       .  A
C820       Br821   1.917       .  S
C825        C826   1.422   1_556  A
C825        C830   1.400       .  A
C825        H832   1.075       .  S
C826        C827   1.433       .  A
C827        C828   1.402       .  A
C827       Br834   1.924       .  S
C828        C829   1.398   1_554  A
C828        H833   1.084       .  S
C829        C830   1.403       .  A
C830       Br831   1.922       .  S
C835        C836   1.420       .  A
C835        C840   1.401       .  A
C835        H842   1.076       .  S
C836        C837   1.438   1_554  A
C837        C838   1.397       .  A
C837       Br844   1.923       .  S
C838        C839   1.391       .  A
C838        H843   1.084       .  S
C839        C840   1.403   1_556  A
C840       Br841   1.916       .  S
C845        C846   1.415       .  A
C845        C850   1.407       .  A
C845        H852   1.081       .  S
C846        C847   1.435   1_554  A
C847        C848   1.393       .  A
C847       Br854   1.930   1_556  S
C848        C849   1.400       .  A
C848        H853   1.083       .  S
C849        C850   1.417   1_556  A
C850       Br851   1.921       .  S
C855        C856   1.412       .  A
C855        C860   1.407       .  A
C855        H862   1.079       .  S
C856        C857   1.429       .  A
C857        C858   1.404       .  A
C857       Br864   1.930       .  S
C858        C859   1.419       .  A
C858        H863   1.079       .  S
C859        C860   1.429       .  A
C860       Br861   1.916       .  S
C865       C1114   1.573       .  S
C865       C1124   1.571       .  S
C865       C1134   1.575       .  S
C865       C1144   1.582       .  S
C866       C1084   1.579       .  S
C866       C1097   1.573       .  S
C866       C1104   1.559       .  S
C866       C1147   1.596       .  S
C867       C1044   1.588       .  S
C867       C1054   1.579       .  S
C867       C1064   1.581       .  S
C867       C1077   1.589       .  S
C868       C1017   1.581       .  S
C868       C1027   1.581       .  S
C868       C1034   1.577       .  S
C868       C1074   1.595       .  S
O869       Zr881   2.442   1_554  S
O870       Zr907   2.396   1_554  S
C871       C1004   1.463       .  S
O872        C874   1.289       .  A
O873       Zr908   2.448       .  S
O873        C874   1.290       .  A
C874       C1047   1.488       .  S
O875       Zr884   2.447       .  S
O875        C877   1.291       .  A
O876        C877   1.284       .  A
C877       C1137   1.500       .  S
O878       Zr881   2.446       .  S
O878        C880   1.288       .  A
O879       Zr908   2.431       .  S
O879        C880   1.288       .  A
C880       C1117   1.480       .  S
Zr881       O882   2.434   1_556  S
Zr881       O883   2.435   1_556  S
Zr881       O888   2.374       .  S
Zr881       O911   2.369       .  S
O882        H925   0.990       .  S
O883        H928   0.990       .  S
Zr884       O886   2.434       .  S
Zr884       O887   2.347       .  S
Zr884       O912   2.377       .  S
O885        H926   0.990       .  S
O885        H929   0.990       .  S
O886        H919   0.990       .  S
O888       Zr908   2.392       .  S
O888        H915   0.966       .  S
O890       Zr908   2.458       .  S
O890        C891   1.293       .  A
O892        C894   1.283       .  A
O893       Zr907   2.448       .  S
O893        C894   1.292       .  A
C894       C1067   1.499       .  S
O895       Zr904   2.416   1_455  S
O896       Zr908   2.402       .  S
O896        C897   1.281       .  A
C897        C997   1.445       .  S
O898       Zr901   2.431       .  S
O898        C900   1.286       .  A
O899       Zr907   2.444       .  S
O899        C900   1.289       .  A
C900       C1127   1.471       .  S
Zr901       O902   2.435       .  S
Zr901       O910   2.377       .  S
Zr901       O913   2.371       .  S
O902        H922   0.990       .  S
O902        H927   0.990       .  S
O903        H923   0.990       .  S
Zr904       O906   2.435       .  S
Zr904       O912   2.365       .  S
O905        H921   0.990       .  S
O906        H920   0.990       .  S
O906        H930   0.990       .  S
Zr907       O910   2.377       .  S
Zr907       O913   2.395       .  S
Zr908       O911   2.381       .  S
Zr908       O914   2.384       .  S
O909        H917   0.966       .  S
O912        H916   0.966       .  S
O913        H918   0.965       .  S
O931       Zr943   2.416   1_655  S
O931        C933   1.285       .  A
O932        C933   1.284       .  A
C933       C1107   1.482       .  S
O934       Zr946   2.432       .  S
O934        C936   1.285       .  A
O935       Zr970   2.437       .  S
O935        C936   1.289       .  A
C936       C1087   1.474       .  S
O937       Zr946   2.438       .  S
O938       Zr969   2.392       .  S
C939       C1007   1.459       .  S
O940        C942   1.283       .  A
O941       Zr970   2.448       .  S
O941        C942   1.290       .  A
C942       C1014   1.479       .  S
Zr943       O945   2.437   1_455  S
Zr943       O949   2.345   1_455  S
Zr943       O975   2.366   1_455  S
O944        H987   0.990       .  S
O945        H986   0.990       .  S
O945        H990   0.990       .  S
Zr946       O947   2.435       .  S
Zr946       O948   2.434       .  S
Zr946       O950   2.370       .  S
Zr946       O976   2.378       .  S
O947        H988   0.990       .  S
O947        H991   0.990       .  S
O950       Zr970   2.383       .  S
O950        H977   0.966       .  S
O951       Zr963   2.420   1_455  S
O952       Zr970   2.407       .  S
O952        C953   1.282       .  A
C953        C994   1.449       .  S
O954       Zr966   2.457       .  S
O954        C956   1.291       .  A
O955       Zr969   2.419       .  S
O955        C956   1.284       .  A
C956       C1094   1.471       .  S
O958       Zr970   2.436       .  S
O958        C959   1.288       .  A
O960        C962   1.284       .  A
O961       Zr969   2.432       .  S
O961        C962   1.288       .  A
C962       C1037   1.475       .  S
Zr963       O965   2.434       .  S
Zr963       O975   2.366       .  S
O964        H984   0.990       .  S
O964        H989   0.990       .  S
O965        H985   0.990       .  S
Zr966       O967   2.434       .  S
Zr966       O972   2.382       .  S
Zr966       O974   2.375       .  S
O967        H983   0.990       .  S
O968        H982   0.990       .  S
O968        H992   0.990       .  S
Zr969       O972   2.380       .  S
Zr969       O974   2.394       .  S
Zr970       O973   2.382       .  S
Zr970       O976   2.386       .  S
O971        H979   0.965       .  S
O974        H978   0.966       .  S
O975        H980   0.966       .  S
C993        C994   1.399       .  A
C993        C998   1.391       .  A
C994        C995   1.408       .  A
C995        C996   1.391       .  A
C995      Br1002   1.922       .  S
C996        C997   1.398       .  A
C996       H1001   1.084       .  S
C997        C998   1.401       .  A
C1003      C1008   1.386       .  A
C1003      H1010   1.084       .  S
C1005      C1006   1.398       .  A
C1005     Br1012   1.915       .  S
C1006      H1011   1.082       .  S
C1008     Br1009   1.920       .  S
C1013      C1014   1.395       .  A
C1013      C1018   1.393       .  A
C1013      H1020   1.085       .  S
C1014      C1015   1.401       .  A
C1015      C1016   1.402       .  A
C1015     Br1022   1.918       .  S
C1016      C1017   1.419       .  A
C1016      H1021   1.069       .  S
C1017      C1018   1.441       .  A
C1018     Br1019   1.930       .  S
C1023      C1024   1.402       .  A
C1023      C1028   1.401       .  A
C1023      H1030   1.084       .  S
C1024      C1025   1.409       .  A
C1025      C1026   1.403       .  A
C1026      C1027   1.421       .  A
C1026      H1031   1.074       .  S
C1027      C1028   1.434       .  A
C1028     Br1029   1.929       .  S
C1033      C1034   1.426       .  A
C1033      C1038   1.388       .  A
C1033      H1040   1.073       .  S
C1034      C1035   1.431       .  A
C1035      C1036   1.405       .  A
C1035     Br1042   1.924       .  S
C1036      C1037   1.403       .  A
C1036      H1041   1.084       .  S
C1037      C1038   1.397       .  A
C1038     Br1039   1.926       .  S
C1043      C1044   1.425       .  A
C1043      C1048   1.407       .  A
C1043      H1050   1.078       .  S
C1044      C1045   1.431       .  A
C1045      C1046   1.399       .  A
C1045     Br1052   1.913       .  S
C1046      C1047   1.398       .  A
C1046      H1051   1.084       .  S
C1047      C1048   1.405       .  A
C1048     Br1049   1.919       .  S
C1053      C1054   1.415       .  A
C1053      C1058   1.396       .  A
C1053      H1060   1.074       .  S
C1054      C1055   1.436       .  A
C1055      C1056   1.410       .  A
C1055     Br1062   1.923       .  S
C1056      C1057   1.405       .  A
C1056      H1061   1.083       .  S
C1057      C1058   1.417       .  A
C1058     Br1059   1.927       .  S
C1063      C1064   1.415       .  A
C1063      C1068   1.398       .  A
C1063      H1070   1.077       .  S
C1064      C1065   1.435       .  A
C1065      C1066   1.402       .  A
C1065     Br1072   1.925       .  S
C1066      C1067   1.401       .  A
C1066      H1071   1.083       .  S
C1067      C1068   1.417       .  A
C1068     Br1069   1.925       .  S
C1073      C1074   1.415       .  A
C1073      C1078   1.399       .  A
C1073      H1080   1.074       .  S
C1074      C1075   1.429       .  A
C1075      C1076   1.413       .  A
C1075     Br1082   1.927       .  S
C1076      C1077   1.419       .  A
C1076      H1081   1.083       .  S
C1077      C1078   1.430       .  A
C1078     Br1079   1.919       .  S
C1083      C1084   1.422       .  A
C1083      C1088   1.395       .  A
C1083      H1090   1.084       .  S
C1084      C1085   1.444       .  A
C1085      C1086   1.401       .  A
C1085     Br1092   1.927       .  S
C1086      C1087   1.391       .  A
C1086      H1091   1.082       .  S
C1087      C1088   1.400       .  A
C1088     Br1089   1.917       .  S
C1093      C1094   1.388       .  A
C1093      C1098   1.397       .  A
C1093      H1100   1.085       .  S
C1094      C1095   1.404       .  A
C1095      C1096   1.404       .  A
C1095     Br1102   1.917       .  S
C1096      C1097   1.418       .  A
C1096      H1101   1.077       .  S
C1097      C1098   1.441       .  A
C1098     Br1099   1.918       .  S
C1103      C1104   1.420       .  A
C1103      C1108   1.404       .  A
C1103      H1110   1.082       .  S
C1104      C1105   1.435       .  A
C1105      C1106   1.385       .  A
C1105     Br1112   1.933       .  S
C1106      C1107   1.397       .  A
C1106      H1111   1.084       .  S
C1107      C1108   1.409       .  A
C1108     Br1109   1.917       .  S
C1113      C1114   1.422   1_556  A
C1113      C1118   1.400       .  A
C1113      H1120   1.075       .  S
C1114      C1115   1.433       .  A
C1115      C1116   1.402       .  A
C1115     Br1122   1.924       .  S
C1116      C1117   1.398   1_554  A
C1116      H1121   1.084       .  S
C1117      C1118   1.403       .  A
C1118     Br1119   1.922       .  S
C1123      C1124   1.420       .  A
C1123      C1128   1.401       .  A
C1123      H1130   1.076       .  S
C1124      C1125   1.438   1_554  A
C1125      C1126   1.397       .  A
C1125     Br1132   1.923       .  S
C1126      C1127   1.391       .  A
C1126      H1131   1.084       .  S
C1127      C1128   1.403   1_556  A
C1128     Br1129   1.916       .  S
C1133      C1134   1.415       .  A
C1133      C1138   1.407       .  A
C1133      H1140   1.081       .  S
C1134      C1135   1.435   1_554  A
C1135      C1136   1.393       .  A
C1135     Br1142   1.930   1_556  S
C1136      C1137   1.400       .  A
C1136      H1141   1.083       .  S
C1137      C1138   1.417   1_556  A
C1138     Br1139   1.921       .  S
C1143      C1144   1.412       .  A
C1143      C1148   1.407       .  A
C1143      H1150   1.079       .  S
C1144      C1145   1.429       .  A
C1145      C1146   1.404       .  A
C1145     Br1152   1.930       .  S
C1146      C1147   1.419       .  A
C1146      H1151   1.079       .  S
C1147      C1148   1.429       .  A
C1148     Br1149   1.916       .  S
