geometry optimzed in LAMMPS
_audit_creation_date              2020-11-30 
_audit_creation_method            'lammps2cif' 
_symmetry_space_group_name_H-M    'P1' 
_symmetry_Int_Tables_number       1 
_symmetry_cell_setting            triclinic 
loop_ 
_symmetry_equiv_pos_as_xyz 
  x,y,z 
_cell_length_a                    40.94050752627871 
_cell_length_b                    41.46920724701312 
_cell_length_c                    43.10960556677151 
_cell_angle_alpha                 87.02060464331407 
_cell_angle_beta                  92.50365734226409 
_cell_angle_gamma                 119.9133733032964 
loop_ 
_atom_site_label 
_atom_site_type_symbol 
_atom_site_fract_x 
_atom_site_fract_y 
_atom_site_fract_z 
_atom_site_charge 
O1          O  0.05549940  0.08751740  0.02498497    -0.78480
O2          O  0.41813245  0.44558918  0.98249441    -0.78500
O3          O  0.44625695  0.03564098  0.47726457    -0.78510
O4          O  0.97909433  0.46462700  0.06144217    -0.78450
O5          O  0.43500948  0.49725913  0.44080540    -0.78580
O6          O  0.00945079  0.02524554  0.06258104    -0.78500
O7          O  0.44264608  0.42012587  0.01403530    -0.78480
O8          O  0.49874935  0.07006417  0.51628457    -0.78520
C9          C  0.03040006  0.09669678  0.02087363     1.11210
C10         C  0.41404772  0.41974769  0.00048647     1.11090
C11         C  0.42352277  0.01243206  0.45871224     1.11230
C12         C  0.98744647  0.49380721  0.07503222     1.11110
O13         O  0.08310242  0.04347385  0.04972274    -0.78480
O14         O  0.50398475  0.49577164  0.42830472    -0.78560
O15         O  0.05855926  0.08057129  0.47072646    -0.78490
O16         O  0.02094184  0.45788961  0.98452420    -0.78470
O17         O  0.47003923  0.42485483  0.46149177    -0.78530
O18         O  0.06668220  0.03511335  0.48787005    -0.78490
O19         O  0.05443576  0.48583016  0.03498998    -0.78450
O20         O  0.49998427  0.04648398  0.42980491    -0.78520
Co21       Co  0.03815824  0.03049917  0.02450113     1.51530
Co22       Co  0.46168706  0.46997200  0.45701958     1.51690
Co23       Co  0.50035507  0.05469156  0.47501856     1.51570
Co24       Co  0.99824200  0.46160430  0.02144445     1.51470
O25         O  0.99209860  0.00429665  0.99570774    -1.40410
C26         C  0.08425720  0.51423956  0.04514313     1.11140
C27         C  0.50715909  0.02515349  0.41534720     1.11230
C28         C  0.08041914  0.06719779  0.47662458     1.11160
C29         C  0.49932712  0.42741330  0.47412332     1.11140
O30         O  0.01726588  0.01044793  0.17286011    -0.78480
O31         O  0.48118497  0.05841962  0.24030111    -0.78500
O32         O  0.43208988  0.49465064  0.21749108    -0.78510
O33         O  0.09069567  0.07198890  0.25479634    -0.78450
O34         O  0.41900351  0.50316860  0.26489109    -0.78580
O35         O  0.07522492  0.06351588  0.20479950    -0.78500
O36         O  0.03693377  0.08542880  0.26104337    -0.78480
O37         O  0.46374655  0.46022655  0.18597483    -0.78520
C38         C  0.98450159  0.98511733  0.16603614     1.11210
C39         C  0.51126614  0.08742478  0.24566274     1.11090
C40         C  0.41164253  0.50088156  0.23568190     1.11230
C41         C  0.09501266  0.08390776  0.22658518     1.11110
O42         O  0.08261129  0.00795126  0.24204160    -0.78480
O43         O  0.44414349  0.45471433  0.27852807    -0.78560
O44         O  0.48632449  0.43964530  0.24712921    -0.78490
O45         O  0.05256681  0.05669852  0.31201982    -0.78470
O46         O  0.48914712  0.52631488  0.30396995    -0.78530
O47         O  0.02457753  0.45335768  0.20885312    -0.78490
O48         O  0.05036105  0.99860761  0.28464884    -0.78450
O49         O  0.41522372  0.42505123  0.23597963    -0.78520
Co50       Co  0.04792021  0.00908702  0.20819192     1.51530
Co51       Co  0.46736340  0.50848156  0.25855767     1.51690
Co52       Co  0.46268335  0.46882918  0.23147298     1.51570
Co53       Co  0.03954937  0.03915819  0.27228332     1.51470
O54         O  0.01229046  0.01356755  0.23626119    -1.40410
C55         C  0.07644111  0.99778279  0.27054686     1.11140
C56         C  0.41754435  0.42547701  0.26535192     1.11230
C57         C  0.00716520  0.43274314  0.23198446     1.11160
C58         C  0.51925416  0.54186976  0.32213061     1.11140
O59         O  0.43077266  0.18071797  0.01021215    -0.78480
O60         O  0.04191411  0.34501022  0.02026617    -0.78500
O61         O  0.99773961  0.23136854  0.06601320    -0.78510
O62         O  0.42973274  0.25954536  0.49281219    -0.78450
O63         O  0.03367059  0.29137868  0.06665430    -0.78580
O64         O  0.41773588  0.21463287  0.46319954    -0.78500
O65         O  0.48324317  0.31150900  0.51839852    -0.78480
O66         O  0.47430531  0.17280913  0.03447649    -0.78520
C67         C  0.43942052  0.16174221  0.02836050     1.11210
C68         C  0.01049327  0.34325127  0.01828689     1.11090
C69         C  0.01249141  0.26068870  0.08054059     1.11230
C70         C  0.40673191  0.22896425  0.48245784     1.11110
O71         O  0.48962856  0.22989500  0.43640931    -0.78480
O72         O  0.07882319  0.27432048  0.02766187    -0.78560
O73         O  0.53870927  0.21846112  0.99012678    -0.78490
O74         O  0.03278572  0.33253092  0.46340471    -0.78470
O75         O  0.06746570  0.30919409  0.47978670    -0.78530
O76         O  0.48593741  0.17321692  0.47796280    -0.78490
O77         O  0.47270093  0.27271971  0.43455197    -0.78450
O78         O  0.05549154  0.21819639  0.04970731    -0.78520
Co79       Co  0.46109142  0.20570405  0.47416645     1.51530
Co80       Co  0.04807348  0.29885255  0.02163538     1.51690
Co81       Co  0.01809640  0.22732148  0.02750667     1.51570
Co82       Co  0.48052926  0.29090610  0.47852850     1.51470
O83         O  0.49560994  0.25367528  0.00138827    -1.40410
C84         C  0.48473413  0.25403942  0.42136391     1.11140
C85         C  0.08334384  0.24785765  0.03838423     1.11230
C86         C  0.52001852  0.18471298  0.48482557     1.11160
C87         C  0.06521022  0.33546679  0.46667715     1.11140
O88         O  0.41882110  0.17845148  0.26542654    -0.78480
O89         O  0.03411564  0.33503712  0.26953047    -0.78500
O90         O  0.98484330  0.22714066  0.31498665    -0.78510
O91         O  0.45826442  0.27439588  0.19357198    -0.78450
O92         O  0.02930459  0.28460992  0.31440926    -0.78580
O93         O  0.41696667  0.22959693  0.22394207    -0.78500
O94         O  0.48388120  0.31087024  0.24149472    -0.78480
O95         O  0.46323761  0.16749154  0.28317572    -0.78520
C96         C  0.42873605  0.15789132  0.28065638     1.11210
C97         C  0.00764779  0.33757189  0.25635111     1.11090
C98         C  0.00318054  0.25713066  0.32856433     1.11230
C99         C  0.42593414  0.25699371  0.20524589     1.11110
O100        O  0.46236964  0.21855145  0.18213612    -0.78480
O101        O  0.07002349  0.26054718  0.27539974    -0.78560
O102        O  0.52402332  0.20850434  0.23993737    -0.78490
O103        O  0.03323308  0.32857086  0.19539345    -0.78470
O104        O  0.06797560  0.31232037  0.22653906    -0.78530
O105        O  0.46712713  0.16888134  0.22471170    -0.78490
O106        O  0.52050751  0.25837941  0.19316967    -0.78450
O107        O  0.03654257  0.20698006  0.30222426    -0.78520
Co108      Co  0.44433344  0.20207978  0.22597629     1.51530
Co109      Co  0.04279545  0.29155171  0.26924641     1.51690
Co110      Co  0.00564362  0.22009187  0.27734743     1.51570
Co111      Co  0.50384700  0.28476948  0.21947811     1.51470
O112        O  0.48628126  0.24645341  0.25161706    -1.40410
C113        C  0.49570956  0.23976237  0.17337740     1.11140
C114        C  0.06758140  0.23223001  0.29162682     1.11230
C115        C  0.50132451  0.17771423  0.22874595     1.11160
C116        C  0.06503139  0.33566385  0.20685781     1.11140
O117        O  0.20281869  0.00798342  0.03829618    -0.78480
O118        O  0.23939705  0.40970183  0.99273573    -0.78500
O119        O  0.17480092  0.46162092  0.46176646    -0.78510
O120        O  0.25216830  0.99898938  0.07146419    -0.78450
O121        O  0.18770185  0.43263241  0.50012975    -0.78580
O122        O  0.26540325  0.05842438  0.06906628    -0.78500
O123        O  0.24269949  0.43418425  0.03802434    -0.78480
O124        O  0.18594851  0.52271819  0.99339985    -0.78520
C125        C  0.17971001  0.01374415  0.02203502     1.11210
C126        C  0.24263690  0.40849594  0.02219041     1.11090
C127        C  0.16468598  0.43322561  0.47969459     1.11230
C128        C  0.25875959  0.02905430  0.08490164     1.11110
O129        O  0.31193054  0.07497560  0.01934026    -0.78480
O130        O  0.22519573  0.44768232  0.44252054    -0.78560
O131        O  0.25597198  0.06762478  0.46041219    -0.78490
O132        O  0.31701242  0.98426013  0.51254970    -0.78470
O133        O  0.29062508  0.47774599  0.46746504    -0.78530
O134        O  0.25028471  0.07974351  0.50817428    -0.78490
O135        O  0.32647989  0.03892743  0.04620116    -0.78450
O136        O  0.24442690  0.50642495  0.43008533    -0.78520
Co137      Co  0.25782214  0.03909486  0.02881760     1.51530
Co138      Co  0.24129669  0.45654682  0.48700286     1.51690
Co139      Co  0.21817606  0.51423306  0.46392888     1.51570
Co140      Co  0.28017578  0.99075182  0.03674942     1.51470
O141        O  0.25388350  0.50701705  0.99606505    -1.40410
C142        C  0.33656946  0.07026352  0.03383263     1.11140
C143        C  0.23667185  0.47424530  0.42256730     1.11230
C144        C  0.25622738  0.08958112  0.47959960     1.11160
C145        C  0.31899035  0.48451938  0.48362225     1.11140
O146        O  0.19769516  0.01800684  0.29368929    -0.78480
O147        O  0.23943362  0.41752458  0.25680144    -0.78500
O148        O  0.17262181  0.46400407  0.20340167    -0.78510
O149        O  0.26419645  0.96897863  0.31313855    -0.78450
O150        O  0.18161197  0.42017354  0.22608910    -0.78580
O151        O  0.25191585  0.01183852  0.32461006    -0.78500
O152        O  0.29794309  0.45608438  0.26835638    -0.78480
O153        O  0.16837377  0.47717567  0.25916869    -0.78520
C154        C  0.16724057  0.99303504  0.28236812     1.11210
C155        C  0.27231986  0.42348197  0.26196085     1.11090
C156        C  0.16130749  0.42976879  0.20997898     1.11230
C157        C  0.25420518  0.98359302  0.33244207     1.11110
O158        O  0.30907947  0.06120461  0.28084897    -0.78480
O159        O  0.23299782  0.47337648  0.18206594    -0.78560
O160        O  0.19386221  0.04025920  0.22141031    -0.78490
O161        O  0.31157692  0.02390347  0.23527688    -0.78470
O162        O  0.29113181  0.47155491  0.21239624    -0.78530
O163        O  0.24904533  0.06159845  0.24483936    -0.78490
O164        O  0.33422743  0.02585825  0.29586814    -0.78450
O165        O  0.24946065  0.52828813  0.19861188    -0.78520
Co166      Co  0.25089312  0.03263968  0.28274278     1.51530
Co167      Co  0.23607364  0.44777348  0.22176691     1.51690
Co168      Co  0.21072600  0.50425821  0.23117721     1.51570
Co169      Co  0.28704874  0.99790798  0.27462484     1.51470
O170        O  0.23795667  0.48319156  0.25520829    -1.40410
C171        C  0.33724212  0.05773380  0.29148365     1.11140
C172        C  0.24612716  0.50780777  0.17687839     1.11230
C173        C  0.22056340  0.06539259  0.23750630     1.11160
C174        C  0.31765139  0.50375960  0.21837399     1.11140
O175        O  0.17093578  0.16786170  0.01633611    -0.78480
O176        O  0.28208434  0.31671324  0.04257069    -0.78500
O177        O  0.23391209  0.19905325  0.06609271    -0.78510
O178        O  0.19405451  0.27544335  0.47468204    -0.78450
O179        O  0.27781314  0.25642727  0.07223310    -0.78580
O180        O  0.15826281  0.21782318  0.49238470    -0.78500
O181        O  0.22838910  0.29632646  0.52083272    -0.78480
O182        O  0.21075201  0.14929444  0.01762084    -0.78520
C183        C  0.17682437  0.14158447  0.01478812     1.11210
C184        C  0.25305364  0.31936391  0.03770300     1.11090
C185        C  0.25079197  0.22695536  0.08305221     1.11230
C186        C  0.16486044  0.25042350  0.48924935     1.11110
O187        O  0.19927420  0.22671444  0.43781633    -0.78480
O188        O  0.31633890  0.24436089  0.02014246    -0.78560
O189        O  0.26891953  0.20720698  0.97953741    -0.78490
O190        O  0.28032398  0.33370160  0.47413424    -0.78470
O191        O  0.30753256  0.30076190  0.48762615    -0.78530
O192        O  0.21291791  0.17152154  0.46136817    -0.78490
O193        O  0.25816068  0.26615605  0.44651889    -0.78450
O194        O  0.28584388  0.18496129  0.03603590    -0.78520
Co195      Co  0.18821062  0.19856255  0.47865952     1.51530
Co196      Co  0.28937587  0.27433293  0.02853992     1.51690
Co197      Co  0.25264388  0.20346094  0.02304729     1.51570
Co198      Co  0.24554930  0.28125933  0.48578526     1.51470
O199        O  0.23189381  0.23513155  0.00874725    -1.40410
C200        C  0.23226771  0.24599375  0.42792674     1.11140
C201        C  0.31514604  0.21272477  0.02500761     1.11230
C202        C  0.24703133  0.17984813  0.46401811     1.11160
C203        C  0.31033739  0.33258782  0.48233385     1.11140
O204        O  0.21305073  0.17582722  0.22080611    -0.78480
O205        O  0.24656442  0.30820063  0.23260128    -0.78500
O206        O  0.16775421  0.19999591  0.29593016    -0.78510
O207        O  0.24439400  0.26266054  0.19001555    -0.78450
O208        O  0.18717473  0.25481620  0.27110244    -0.78580
O209        O  0.26868368  0.22670750  0.18676508    -0.78500
O210        O  0.29617782  0.33781556  0.20355774    -0.78480
O211        O  0.18875653  0.20899308  0.23534721    -0.78520
C212        C  0.18569060  0.18175255  0.22143075     1.11210
C213        C  0.27372867  0.33909287  0.22250345     1.11090
C214        C  0.16206714  0.22631768  0.28664241     1.11230
C215        C  0.25029117  0.24097897  0.17442132     1.11110
O216        O  0.32232871  0.24179407  0.23540432    -0.78480
O217        O  0.24209781  0.27346607  0.32081205    -0.78560
O218        O  0.20614363  0.16467919  0.27843160    -0.78490
O219        O  0.32725153  0.31685317  0.25161515    -0.78470
O220        O  0.29698264  0.32561267  0.28703361    -0.78530
O221        O  0.26523062  0.18458388  0.27109572    -0.78490
O222        O  0.32362596  0.28544581  0.20276803    -0.78450
O223        O  0.23867851  0.22023864  0.31817229    -0.78520
Co224      Co  0.26751993  0.20986019  0.23084392     1.51530
Co225      Co  0.24482972  0.28658467  0.27556393     1.51690
Co226      Co  0.21453343  0.21681612  0.27650983     1.51570
Co227      Co  0.28345334  0.28971706  0.22365099     1.51470
O228        O  0.26207905  0.24854715  0.25585675    -1.40410
C229        C  0.33890599  0.26756066  0.21496499     1.11140
C230        C  0.24244262  0.24618929  0.33431907     1.11230
C231        C  0.23253437  0.15768061  0.27558639     1.11160
C232        C  0.32744445  0.33284326  0.27536436     1.11140
C233        C  0.23986885  0.24503145  0.39559755    -0.11620
C234        C  0.24339286  0.24420316  0.36790110    -0.13170
C235        C  0.24069214  0.22713745  0.11484050    -0.11620
C236        C  0.24023970  0.23390768  0.14187389    -0.13170
C237        C  0.28162121  0.37270631  0.23693753    -0.11620
C238        C  0.28141292  0.39692569  0.25107864    -0.13170
C239        C  0.21836035  0.09509904  0.25107652    -0.11620
C240        C  0.22315387  0.12175418  0.26491932    -0.13170
C241        C  0.24147268  0.46835190  0.39121124    -0.11620
C242        C  0.24682469  0.97031290  0.36387585    -0.13170
C243        C  0.25606572  0.02793534  0.11790888    -0.11620
C244        C  0.25334974  0.52207401  0.14554782    -0.13170
C245        C  0.25063786  0.35199122  0.04373668    -0.11620
C246        C  0.24585945  0.37823836  0.03748394    -0.13170
C247        C  0.25636538  0.15114921  0.46121270    -0.11620
C248        C  0.25931549  0.12413817  0.46814375    -0.13170
C249        C  0.40031781  0.12158974  0.29123450    -0.11620
C250        C  0.37313035  0.09098247  0.29421526    -0.13170
C251        C  0.12543030  0.40057687  0.20020691    -0.11620
C252        C  0.09737363  0.37062136  0.19937994    -0.13170
C253        C  0.37366191  0.27381451  0.20398590    -0.11620
C254        C  0.40008342  0.26992088  0.19997018    -0.13170
C255        C  0.12679631  0.22395338  0.29139016    -0.11620
C256        C  0.09917917  0.22665661  0.29341071    -0.13170
C257        C  0.49071538  0.25846056  0.38825181    -0.11620
C258        C  0.99592585  0.25929102  0.36068770    -0.13170
C259        C  0.50305140  0.24897506  0.14088317    -0.11620
C260        C  0.00744209  0.25740791  0.11352077    -0.13170
C261        C  0.40783273  0.12605315  0.03766916    -0.11620
C262        C  0.37565486  0.09989789  0.03712923    -0.13170
C263        C  0.09928694  0.37182699  0.46679830    -0.11620
C264        C  0.12853759  0.40007840  0.47332336    -0.13170
C265        C  0.36943094  0.21150439  0.49515630    -0.11620
C266        C  0.34361872  0.20781916  0.01062166    -0.13170
C267        C  0.14132550  0.25711619  0.50857289    -0.11620
C268        C  0.11715495  0.25066334  0.02714893    -0.13170
C269        C  0.39098228  0.39293314  0.28242866    -0.11620
C270        C  0.36245633  0.36346822  0.28557205    -0.13170
C271        C  0.12284804  0.12103471  0.21888981    -0.11620
C272        C  0.14942021  0.15149210  0.21534183    -0.13170
C273        C  0.38278318  0.50793368  0.22292469    -0.11620
C274        C  0.35524225  0.51042589  0.21624644    -0.13170
C275        C  0.13139545  0.98784222  0.29102744    -0.11620
C276        C  0.10262717  0.98898600  0.28677172    -0.13170
C277        C  0.00909829  0.37263565  0.25185771    -0.11620
C278        C  0.01018680  0.40087669  0.24203636    -0.13170
C279        C  0.51164048  0.14936962  0.22866260    -0.11620
C280        C  0.51496540  0.12247493  0.23509376    -0.13170
C281        C  0.51520083  0.53846451  0.35507948    -0.11620
C282        C  0.51326233  0.03235847  0.38273171    -0.13170
C283        C  0.97518851  0.99002844  0.10632376    -0.11620
C284        C  0.97310916  0.98483445  0.13411993    -0.13170
C285        C  0.34541378  0.36460884  0.49143823    -0.11620
C286        C  0.37666828  0.38795787  0.99999824    -0.13170
C287        C  0.11994181  0.09103790  0.48333350    -0.11620
C288        C  0.14869407  0.11032760  0.99791189    -0.13170
C289        C  0.35341236  0.49256639  0.46939908    -0.11620
C290        C  0.38439727  0.50105295  0.46080334    -0.13170
C291        C  0.11985942  0.01420386  0.04429625    -0.11620
C292        C  0.14753394  0.01308331  0.03623287    -0.13170
C293        C  0.00641388  0.37306936  0.00294700    -0.11540
C294        C  0.50174255  0.39582411  0.48738601    -0.13170
C295        C  0.53249401  0.15845990  0.49687245    -0.11620
C296        C  0.03696867  0.13357644  0.00955704    -0.13170
O297        O  0.05549916  0.08751801  0.52498550    -0.78480
O298        O  0.41813380  0.44558777  0.48249464    -0.78500
O299        O  0.44625655  0.03564064  0.97726429    -0.78510
O300        O  0.97909527  0.46462667  0.56144218    -0.78450
O301        O  0.43500925  0.49726032  0.94080458    -0.78580
O302        O  0.00945076  0.02524584  0.56258137    -0.78500
O303        O  0.44264805  0.42012482  0.51403516    -0.78480
O304        O  0.49874945  0.07006403  0.01628406    -0.78520
C305        C  0.03039960  0.09669712  0.52087418     1.11210
C306        C  0.41404939  0.41974600  0.50048621     1.11090
C307        C  0.42352230  0.01243183  0.95871193     1.11230
C308        C  0.98744729  0.49380683  0.57503232     1.11110
O309        O  0.08310258  0.04347450  0.54972317    -0.78480
O310        O  0.50398348  0.49577087  0.92830445    -0.78560
O311        O  0.05855882  0.08057040  0.97072579    -0.78490
O312        O  0.02094501  0.45789118  0.48452476    -0.78470
O313        O  0.47003615  0.42485398  0.96149179    -0.78530
O314        O  0.06668193  0.03511259  0.98786960    -0.78490
O315        O  0.05443741  0.48583132  0.53499089    -0.78450
O316        O  0.49998353  0.04648299  0.92980453    -0.78520
Co317      Co  0.03815837  0.03049978  0.52450152     1.51530
Co318      Co  0.46168564  0.46997221  0.95701927     1.51690
Co319      Co  0.50035460  0.05469093  0.97501811     1.51570
Co320      Co  0.99824387  0.46160449  0.52144477     1.51470
O321        O  0.99209883  0.00429711  0.49570802    -1.40410
C322        C  0.08425874  0.51424097  0.54514378     1.11140
C323        C  0.50715823  0.02515236  0.91534691     1.11230
C324        C  0.08041871  0.06719695  0.97662392     1.11160
C325        C  0.49932388  0.42741189  0.97412321     1.11140
O326        O  0.01726586  0.01044792  0.67286007    -0.78480
O327        O  0.48118487  0.05841944  0.74030087    -0.78500
O328        O  0.43209010  0.49465053  0.71749106    -0.78510
O329        O  0.09069566  0.07198894  0.75479627    -0.78450
O330        O  0.41900383  0.50316858  0.76489108    -0.78580
O331        O  0.07522498  0.06351599  0.70479942    -0.78500
O332        O  0.03693376  0.08542891  0.76104300    -0.78480
O333        O  0.46374679  0.46022633  0.68597488    -0.78520
C334        C  0.98450153  0.98511730  0.66603617     1.11210
C335        C  0.51126604  0.08742463  0.74566244     1.11090
C336        C  0.41164275  0.50088145  0.73568191     1.11230
C337        C  0.09501267  0.08390786  0.72658513     1.11110
O338        O  0.08261129  0.00795134  0.74204159    -0.78480
O339        O  0.44414391  0.45471440  0.77852804    -0.78560
O340        O  0.48632480  0.43964526  0.74712932    -0.78490
O341        O  0.05256682  0.05669881  0.81201962    -0.78470
O342        O  0.48914752  0.52631490  0.80396980    -0.78530
O343        O  0.02457786  0.45335725  0.70885341    -0.78490
O344        O  0.05036104  0.99860780  0.78464882    -0.78450
O345        O  0.41522405  0.42505120  0.73597965    -0.78520
Co346      Co  0.04792024  0.00908708  0.70819186     1.51530
Co347      Co  0.46736372  0.50848157  0.75855757     1.51690
Co348      Co  0.46268364  0.46882914  0.73147298     1.51570
Co349      Co  0.03954934  0.03915834  0.77228317     1.51470
O350        O  0.01229045  0.01356758  0.73626109    -1.40410
C351        C  0.07644111  0.99778294  0.77054687     1.11140
C352        C  0.41754479  0.42547704  0.76535193     1.11230
C353        C  0.00716540  0.43274279  0.73198475     1.11160
C354        C  0.51925458  0.54186986  0.82213042     1.11140
O355        O  0.43077143  0.18071817  0.51021100    -0.78480
O356        O  0.04191699  0.34501112  0.52026619    -0.78500
O357        O  0.99773676  0.23137010  0.56601272    -0.78510
O358        O  0.42973200  0.25954338  0.99281177    -0.78450
O359        O  0.03367291  0.29137950  0.56665403    -0.78580
O360        O  0.41773498  0.21463023  0.96319988    -0.78500
O361        O  0.48324126  0.31150733  0.01839800    -0.78480
O362        O  0.47430369  0.17280970  0.53447656    -0.78520
C363        C  0.43941904  0.16174267  0.52835992     1.11210
C364        C  0.01049656  0.34325305  0.51828747     1.11090
C365        C  0.01249137  0.26069023  0.58054026     1.11230
C366        C  0.40673103  0.22896221  0.98245762     1.11110
O367        O  0.48962792  0.22989313  0.93640935    -0.78480
O368        O  0.07882354  0.27431983  0.52766141    -0.78560
O369        O  0.53870860  0.21846138  0.49012794    -0.78490
O370        O  0.03278482  0.33253006  0.96340468    -0.78470
O371        O  0.06746563  0.30919461  0.97978765    -0.78530
O372        O  0.48593778  0.17321611  0.97796296    -0.78490
O373        O  0.47270071  0.27271809  0.93455175    -0.78450
O374        O  0.05548894  0.21819658  0.54970924    -0.78520
Co375      Co  0.46109160  0.20570301  0.97416698     1.51530
Co376      Co  0.04807456  0.29885258  0.52163480     1.51690
Co377      Co  0.01809481  0.22732217  0.52750731     1.51570
Co378      Co  0.48052852  0.29090456  0.97852819     1.51470
O379        O  0.49560981  0.25367600  0.50138809    -1.40410
C380        C  0.48473360  0.25403751  0.92136381     1.11140
C381        C  0.08334230  0.24785647  0.53838550     1.11230
C382        C  0.52001917  0.18471255  0.98482486     1.11160
C383        C  0.06520969  0.33546687  0.96667779     1.11140
O384        O  0.41882108  0.17845094  0.76542583    -0.78480
O385        O  0.03411512  0.33503623  0.76953103    -0.78500
O386        O  0.98484299  0.22713862  0.81498584    -0.78510
O387        O  0.45826458  0.27439611  0.69357201    -0.78450
O388        O  0.02930381  0.28460806  0.81440919    -0.78580
O389        O  0.41696670  0.22959678  0.72394175    -0.78500
O390        O  0.48388101  0.31086985  0.74149516    -0.78480
O391        O  0.46323760  0.16749086  0.78317476    -0.78520
C392        C  0.42873607  0.15789075  0.78065557     1.11210
C393        C  0.00764729  0.33757115  0.75635176     1.11090
C394        C  0.00317991  0.25712834  0.82856397     1.11230
C395        C  0.42593421  0.25699373  0.70524573     1.11110
O396        O  0.46236993  0.21855187  0.68213572    -0.78480
O397        O  0.07002343  0.26054649  0.77539929    -0.78560
O398        O  0.52402346  0.20850423  0.73993656    -0.78490
O399        O  0.03323302  0.32857144  0.69539418    -0.78470
O400        O  0.06797572  0.31232068  0.72653930    -0.78530
O401        O  0.46712729  0.16888130  0.72471080    -0.78490
O402        O  0.52050773  0.25837982  0.69316956    -0.78450
O403        O  0.03654231  0.20697853  0.80222269    -0.78520
Co404      Co  0.44433354  0.20207968  0.72597573     1.51530
Co405      Co  0.04279510  0.29155088  0.76924638     1.51690
Co406      Co  0.00564355  0.22009089  0.77734628     1.51570
Co407      Co  0.50384701  0.28476947  0.71947824     1.51470
O408        O  0.48628124  0.24645300  0.75161683    -1.40410
C409        C  0.49570988  0.23976298  0.67337716     1.11140
C410        C  0.06758128  0.23222898  0.79162591     1.11230
C411        C  0.50132467  0.17771416  0.72874506     1.11160
C412        C  0.06503139  0.33566425  0.70685823     1.11140
O413        O  0.20281776  0.00798243  0.53829580    -0.78480
O414        O  0.23939700  0.40970147  0.49273533    -0.78500
O415        O  0.17480084  0.46162119  0.96176663    -0.78510
O416        O  0.25216752  0.99898874  0.57146401    -0.78450
O417        O  0.18770160  0.43263260  0.00012996    -0.78580
O418        O  0.26540199  0.05842359  0.56906601    -0.78500
O419        O  0.24269933  0.43418360  0.53802410    -0.78480
O420        O  0.18594860  0.52271796  0.49339976    -0.78520
C421        C  0.17970933  0.01374352  0.52203466     1.11210
C422        C  0.24263661  0.40849531  0.52219002     1.11090
C423        C  0.16468572  0.43322589  0.97969484     1.11230
C424        C  0.25875857  0.02905361  0.58490143     1.11110
O425        O  0.31192940  0.07497505  0.51934005    -0.78480
O426        O  0.22519560  0.44768257  0.94252076    -0.78560
O427        O  0.25597244  0.06762564  0.96041252    -0.78490
O428        O  0.31701229  0.98425991  0.01254958    -0.78470
O429        O  0.29062488  0.47774635  0.96746518    -0.78530
O430        O  0.25028558  0.07974438  0.00817472    -0.78490
O431        O  0.32647922  0.03892745  0.54620124    -0.78450
O432        O  0.24442701  0.50642525  0.93008558    -0.78520
Co433      Co  0.25782118  0.03909405  0.52881737     1.51530
Co434      Co  0.24129653  0.45654711  0.98700310     1.51690
Co435      Co  0.21817609  0.51423337  0.96392907     1.51570
Co436      Co  0.28017548  0.99075156  0.53674940     1.51470
O437        O  0.25388353  0.50701669  0.49606478    -1.40410
C438        C  0.33656846  0.07026341  0.53383258     1.11140
C439        C  0.23667182  0.47424557  0.92256752     1.11230
C440        C  0.25622775  0.08958190  0.97959999     1.11160
C441        C  0.31899035  0.48452006  0.98362221     1.11140
O442        O  0.19769521  0.01800707  0.79368925    -0.78480
O443        O  0.23943340  0.41752451  0.75680156    -0.78500
O444        O  0.17262192  0.46400428  0.70340163    -0.78510
O445        O  0.26419614  0.96897859  0.81313861    -0.78450
O446        O  0.18161193  0.42017370  0.72608912    -0.78580
O447        O  0.25191592  0.01183878  0.82461001    -0.78500
O448        O  0.29794287  0.45608417  0.76835662    -0.78480
O449        O  0.16837388  0.47717595  0.75916864    -0.78520
C450        C  0.16724057  0.99303525  0.78236815     1.11210
C451        C  0.27231959  0.42348180  0.76196103     1.11090
C452        C  0.16130752  0.42976900  0.70997896     1.11230
C453        C  0.25420509  0.98359321  0.83244210     1.11110
O454        O  0.30907946  0.06120449  0.78084878    -0.78480
O455        O  0.23299792  0.47337648  0.68206598    -0.78560
O456        O  0.19386217  0.04025935  0.72141034    -0.78490
O457        O  0.31157677  0.02390320  0.73527686    -0.78470
O458        O  0.29113179  0.47155471  0.71239640    -0.78530
O459        O  0.24904535  0.06159846  0.74483922    -0.78490
O460        O  0.33422720  0.02585799  0.79586815    -0.78450
O461        O  0.24946077  0.52828819  0.69861178    -0.78520
Co462      Co  0.25089314  0.03263977  0.78274268     1.51530
Co463      Co  0.23607360  0.44777347  0.72176700     1.51690
Co464      Co  0.21072613  0.50425839  0.73117716     1.51570
Co465      Co  0.28704851  0.99790782  0.77462485     1.51470
O466        O  0.23795668  0.48319162  0.75520832    -1.40410
C467        C  0.33724204  0.05773357  0.79148351     1.11140
C468        C  0.24612723  0.50780775  0.67687834     1.11230
C469        C  0.22056348  0.06539272  0.73750627     1.11160
C470        C  0.31765143  0.50375937  0.71837419     1.11140
O471        O  0.17093736  0.16786088  0.51633816    -0.78480
O472        O  0.28208454  0.31671311  0.54256989    -0.78500
O473        O  0.23391303  0.19905278  0.56609342    -0.78510
O474        O  0.19405668  0.27544558  0.97468010    -0.78450
O475        O  0.27781298  0.25642745  0.57223332    -0.78580
O476        O  0.15826347  0.21782576  0.99238267    -0.78500
O477        O  0.22839000  0.29632842  0.02083170    -0.78480
O478        O  0.21075317  0.14929340  0.51762161    -0.78520
C479        C  0.17682554  0.14158352  0.51478944     1.11210
C480        C  0.25305327  0.31936296  0.53770301     1.11090
C481        C  0.25079231  0.22695526  0.58305263     1.11230
C482        C  0.16486209  0.25042640  0.98924718     1.11110
O483        O  0.19927635  0.22671710  0.93781532    -0.78480
O484        O  0.31633928  0.24436050  0.52014340    -0.78560
O485        O  0.26892027  0.20720625  0.47953809    -0.78490
O486        O  0.28032372  0.33370271  0.97413300    -0.78470
O487        O  0.30753288  0.30076376  0.98762641    -0.78530
O488        O  0.21291744  0.17152240  0.96136717    -0.78490
O489        O  0.25816293  0.26615712  0.94651918    -0.78450
O490        O  0.28584482  0.18496091  0.53603675    -0.78520
Co491      Co  0.18821084  0.19856431  0.97865807     1.51530
Co492      Co  0.28937592  0.27433234  0.52854002     1.51690
Co493      Co  0.25264461  0.20346024  0.52304797     1.51570
Co494      Co  0.24555070  0.28126081  0.98578494     1.51470
O495        O  0.23189404  0.23513050  0.50874775    -1.40410
C496        C  0.23227031  0.24599554  0.92792651     1.11140
C497        C  0.31514683  0.21272462  0.52500858     1.11230
C498        C  0.24703073  0.17984868  0.96401756     1.11160
C499        C  0.31033702  0.33258941  0.98233390     1.11140
O500        O  0.21305072  0.17582721  0.72080677    -0.78480
O501        O  0.24656450  0.30820049  0.73260166    -0.78500
O502        O  0.16775540  0.19999645  0.79593157    -0.78510
O503        O  0.24439388  0.26266038  0.69001590    -0.78450
O504        O  0.18717541  0.25481639  0.77110339    -0.78580
O505        O  0.26868342  0.22670721  0.68676536    -0.78500
O506        O  0.29617767  0.33781546  0.70355788    -0.78480
O507        O  0.18875659  0.20899298  0.73534832    -0.78520
C508        C  0.18569062  0.18175257  0.72143163     1.11210
C509        C  0.27372858  0.33909274  0.72250367     1.11090
C510        C  0.16206798  0.22631790  0.78664347     1.11230
C511        C  0.25029097  0.24097878  0.67442164     1.11110
O512        O  0.32232886  0.24179397  0.73540420    -0.78480
O513        O  0.24209931  0.27346655  0.82081240    -0.78560
O514        O  0.20614429  0.16467936  0.77843238    -0.78490
O515        O  0.32725194  0.31685325  0.75161501    -0.78470
O516        O  0.29698336  0.32561293  0.78703360    -0.78530
O517        O  0.26523113  0.18458399  0.77109600    -0.78490
O518        O  0.32362591  0.28544566  0.70276793    -0.78450
O519        O  0.23868037  0.22023928  0.81817264    -0.78520
Co520      Co  0.26752005  0.20986011  0.73084419     1.51530
Co521      Co  0.24483041  0.28658484  0.77556432     1.51690
Co522      Co  0.21453430  0.21681638  0.77651062     1.51570
Co523      Co  0.28345348  0.28971704  0.72365113     1.51470
O524        O  0.26207952  0.24854726  0.75585697    -1.40410
C525        C  0.33890600  0.26756053  0.71496481     1.11140
C526        C  0.24244484  0.24619010  0.83431934     1.11230
C527        C  0.23253493  0.15768073  0.77558685     1.11160
C528        C  0.32744506  0.33284338  0.77536426     1.11140
C529        C  0.23987226  0.24503310  0.89559766    -0.11620
C530        C  0.24339610  0.24420445  0.86790128    -0.13170
C531        C  0.24069231  0.22713744  0.61484084    -0.11620
C532        C  0.24023963  0.23390763  0.64187420    -0.13170
C533        C  0.28162101  0.37270618  0.73693768    -0.11620
C534        C  0.28141262  0.39692552  0.75107879    -0.13170
C535        C  0.21836057  0.09509919  0.75107664    -0.11620
C536        C  0.22315426  0.12175431  0.76491957    -0.13170
C537        C  0.24147265  0.46835216  0.89121145    -0.11620
C538        C  0.24682469  0.97031332  0.86387594    -0.13170
C539        C  0.25606479  0.02793472  0.61790867    -0.11620
C540        C  0.25334970  0.52207383  0.64554769    -0.13170
C541        C  0.25063730  0.35199033  0.54373609    -0.11620
C542        C  0.24585890  0.37823748  0.53748337    -0.13170
C543        C  0.25636463  0.15114950  0.96121287    -0.11620
C544        C  0.25931510  0.12413869  0.96814415    -0.13170
C545        C  0.40031785  0.12158930  0.79123391    -0.11620
C546        C  0.37313035  0.09098212  0.79421491    -0.13170
C547        C  0.12543030  0.40057714  0.70020693    -0.11620
C548        C  0.09737362  0.37062164  0.69938013    -0.13170
C549        C  0.37366189  0.27381442  0.70398564    -0.11620
C550        C  0.40008342  0.26992080  0.69996998    -0.13170
C551        C  0.12679680  0.22395314  0.79139063    -0.11620
C552        C  0.09917938  0.22665607  0.79341034    -0.13170
C553        C  0.49071486  0.25845848  0.88825170    -0.11620
C554        C  0.99592501  0.25928790  0.86068747    -0.13170
C555        C  0.50305176  0.24897612  0.64088304    -0.11620
C556        C  0.00744290  0.25740991  0.61352046    -0.13170
C557        C  0.40783126  0.12605375  0.53766880    -0.11620
C558        C  0.37565361  0.09989816  0.53712911    -0.13170
C559        C  0.09928617  0.37182741  0.96679887    -0.11620
C560        C  0.12853700  0.40007881  0.97332379    -0.13170
C561        C  0.36942981  0.21150316  0.99515563    -0.11620
C562        C  0.34361979  0.20781956  0.51062264    -0.13170
C563        C  0.14132782  0.25712017  0.00857057    -0.11620
C564        C  0.11715262  0.25065970  0.52715115    -0.13170
C565        C  0.39098290  0.39293314  0.78242870    -0.11620
C566        C  0.36245699  0.36346819  0.78557197    -0.13170
C567        C  0.12284800  0.12103489  0.71888990    -0.11620
C568        C  0.14942022  0.15149232  0.71534233    -0.13170
C569        C  0.38278327  0.50793343  0.72292476    -0.11620
C570        C  0.35524228  0.51042559  0.71624662    -0.13170
C571        C  0.13139549  0.98784248  0.79102751    -0.11620
C572        C  0.10262719  0.98898622  0.78677177    -0.13170
C573        C  0.00909803  0.37263507  0.75185831    -0.11620
C574        C  0.01018677  0.40087621  0.74203683    -0.13170
C575        C  0.51164055  0.14936946  0.72866187    -0.11620
C576        C  0.51496537  0.12247475  0.73509325    -0.13170
C577        C  0.51520126  0.53846438  0.85507929    -0.11620
C578        C  0.51326177  0.03235746  0.88273148    -0.13170
C579        C  0.97518825  0.99002850  0.60632388    -0.11620
C580        C  0.97310895  0.98483444  0.63412002    -0.13170
C581        C  0.34541246  0.36461076  0.99143881    -0.11620
C582        C  0.37666999  0.38795566  0.49999752    -0.13170
C583        C  0.11994125  0.09103735  0.98333282    -0.11620
C584        C  0.14869491  0.11032734  0.49791264    -0.13170
C585        C  0.35341237  0.49256750  0.96939876    -0.11620
C586        C  0.38439723  0.50105435  0.96080268    -0.13170
C587        C  0.11985950  0.01420442  0.54429628    -0.11620
C588        C  0.14753366  0.01308338  0.53623261    -0.13170
C589        C  0.00641807  0.37307146  0.50294740    -0.11540
C590        C  0.50173889  0.39582239  0.98738589    -0.13170
C591        C  0.53249499  0.15845974  0.99687167    -0.11620
C592        C  0.03696776  0.13357672  0.50955775    -0.13170
O593        O  0.05550556  0.58752325  0.02498036    -0.78480
O594        O  0.41812897  0.94558263  0.98249815    -0.78500
O595        O  0.44626571  0.53564735  0.47725808    -0.78510
O596        O  0.97908270  0.96462052  0.06144519    -0.78450
O597        O  0.43500094  0.99725371  0.44081036    -0.78580
O598        O  0.00946412  0.52525199  0.06257732    -0.78500
O599        O  0.44264260  0.92011739  0.01403631    -0.78480
O600        O  0.49875595  0.57006948  0.51627804    -0.78520
C601        C  0.03040588  0.59670257  0.02086826     1.11210
C602        C  0.41404421  0.91973859  0.00048680     1.11090
C603        C  0.42353064  0.51243619  0.45870788     1.11230
C604        C  0.98742998  0.99380030  0.07503407     1.11110
O605        O  0.08311206  0.54347679  0.04971438    -0.78480
O606        O  0.50397850  0.99577220  0.42830613    -0.78560
O607        O  0.05856882  0.58057793  0.47072231    -0.78490
O608        O  0.02094191  0.95788932  0.98453093    -0.78470
O609        O  0.47004018  0.92485496  0.46149378    -0.78530
O610        O  0.06668836  0.53511759  0.48786220    -0.78490
O611        O  0.05443023  0.98582767  0.03499829    -0.78450
O612        O  0.49999496  0.54648636  0.42979937    -0.78520
Co613      Co  0.03816659  0.53050451  0.02449526     1.51530
Co614      Co  0.46168238  0.96996909  0.45702237     1.51690
Co615      Co  0.50036368  0.55469658  0.47501264     1.51570
Co616      Co  0.99823677  0.96159994  0.02144948     1.51470
O617        O  0.99210477  0.50430208  0.99570396    -1.40410
C618        C  0.08425044  0.01423822  0.04515177     1.11140
C619        C  0.50717026  0.52515418  0.41534446     1.11230
C620        C  0.08042816  0.56720405  0.47662120     1.11160
C621        C  0.49932726  0.92741342  0.47412755     1.11140
O622        O  0.01731594  0.51044867  0.17285847    -0.78480
O623        O  0.48122854  0.55842227  0.24029723    -0.78500
O624        O  0.43204117  0.99464630  0.21750104    -0.78510
O625        O  0.09073650  0.57199887  0.25479517    -0.78450
O626        O  0.41896251  0.00316828  0.26490231    -0.78580
O627        O  0.07526743  0.56351847  0.20479784    -0.78500
O628        O  0.03697122  0.58543178  0.26104950    -0.78480
O629        O  0.46369499  0.96022552  0.18597653    -0.78520
C630        C  0.98455071  0.48511988  0.16603523     1.11210
C631        C  0.51130486  0.58742880  0.24566779     1.11090
C632        C  0.41159668  0.00087867  0.23569391     1.11230
C633        C  0.09505050  0.58391434  0.22658279     1.11110
O634        O  0.08266476  0.50796360  0.24204270    -0.78480
O635        O  0.44411136  0.95471890  0.27853646    -0.78560
O636        O  0.48627946  0.93963901  0.24712824    -0.78490
O637        O  0.05260348  0.55669839  0.31202243    -0.78470
O638        O  0.48911019  0.02631715  0.30397425    -0.78530
O639        O  0.02452448  0.95335212  0.20884679    -0.78490
O640        O  0.05041201  0.49861545  0.28464871    -0.78450
O641        O  0.41517811  0.92504833  0.23599326    -0.78520
Co642      Co  0.04796958  0.50909175  0.20819286     1.51530
Co643      Co  0.46732215  0.00848159  0.25856354     1.51690
Co644      Co  0.46263693  0.96882524  0.23147767     1.51570
Co645      Co  0.03959235  0.53916178  0.27228438     1.51470
O646        O  0.01233671  0.51357126  0.23626041    -1.40410
C647        C  0.07649531  0.49779518  0.27054788     1.11140
C648        C  0.41751002  0.92547922  0.26536573     1.11230
C649        C  0.00711536  0.93273531  0.23197814     1.11160
C650        C  0.51921988  0.04187148  0.32213178     1.11140
O651        O  0.43077050  0.68071453  0.01020018    -0.78480
O652        O  0.04191535  0.84501088  0.02027248    -0.78500
O653        O  0.99772986  0.73136579  0.06600920    -0.78510
O654        O  0.42973348  0.75954787  0.49281253    -0.78450
O655        O  0.03367113  0.79137389  0.06665677    -0.78580
O656        O  0.41773947  0.71464047  0.46319462    -0.78500
O657        O  0.48324280  0.81150871  0.51840251    -0.78480
O658        O  0.47430330  0.67280967  0.03446970    -0.78520
C659        C  0.43941876  0.66174106  0.02835127     1.11210
C660        C  0.01049466  0.84325221  0.01829289     1.11090
C661        C  0.01248697  0.76068331  0.08054029     1.11230
C662        C  0.40673407  0.72896797  0.48245562     1.11110
O663        O  0.48963595  0.72990959  0.43640404    -0.78480
O664        O  0.07882345  0.77432050  0.02766069    -0.78560
O665        O  0.53871134  0.71846676  0.99012562    -0.78490
O666        O  0.03278534  0.83253615  0.46340878    -0.78470
O667        O  0.06746614  0.80919948  0.47978913    -0.78530
O668        O  0.48594263  0.67322368  0.47795369    -0.78490
O669        O  0.47270309  0.77273031  0.43455174    -0.78450
O670        O  0.05548581  0.71819648  0.04970788    -0.78520
Co671      Co  0.46109466  0.70570964  0.47415872     1.51530
Co672      Co  0.04807357  0.79885271  0.02163696     1.51690
Co673      Co  0.01809308  0.72732295  0.02750473     1.51570
Co674      Co  0.48052951  0.79091064  0.47853035     1.51470
O675        O  0.49560980  0.75367785  0.00138609    -1.40410
C676        C  0.48474175  0.75405604  0.42136141     1.11140
C677        C  0.08334030  0.74785591  0.03838480     1.11230
C678        C  0.52002270  0.68471916  0.48482072     1.11160
C679        C  0.06520985  0.83547251  0.46668106     1.11140
O680        O  0.41883824  0.67844833  0.26543709    -0.78480
O681        O  0.03409829  0.83504482  0.26951260    -0.78500
O682        O  0.98485561  0.72716681  0.31498555    -0.78510
O683        O  0.45825179  0.77436780  0.19356123    -0.78450
O684        O  0.02931505  0.78463603  0.31440161    -0.78580
O685        O  0.41696269  0.72957492  0.22393981    -0.78500
O686        O  0.48386604  0.81086451  0.24147403    -0.78480
O687        O  0.46326763  0.66751081  0.28319244    -0.78520
C688        C  0.42876381  0.65789928  0.28067196     1.11210
C689        C  0.00762586  0.83757004  0.25633049     1.11090
C690        C  0.00319309  0.75715851  0.32856040     1.11230
C691        C  0.42592501  0.75696860  0.20524068     1.11110
O692        O  0.46237378  0.71853066  0.18213919    -0.78480
O693        O  0.07003755  0.76057451  0.27539339    -0.78560
O694        O  0.52404252  0.70851264  0.23994886    -0.78490
O695        O  0.03320906  0.82855666  0.19537090    -0.78470
O696        O  0.06796807  0.81233347  0.22652366    -0.78530
O697        O  0.46714810  0.66887864  0.22472726    -0.78490
O698        O  0.52050844  0.75837183  0.19316865    -0.78450
O699        O  0.03656729  0.70701937  0.30223651    -0.78520
Co700      Co  0.44434259  0.70206866  0.22598218     1.51530
Co701      Co  0.04279703  0.79156937  0.26923571     1.51690
Co702      Co  0.00566051  0.72011224  0.27735192     1.51570
Co703      Co  0.50383963  0.78476316  0.21946713     1.51470
O704        O  0.48628616  0.74645681  0.25161390    -1.40410
C705        C  0.49571183  0.73974730  0.17337820     1.11140
C706        C  0.06760194  0.73226456  0.29162928     1.11230
C707        C  0.50134691  0.67771710  0.22876340     1.11160
C708        C  0.06501114  0.83566449  0.20683575     1.11140
O709        O  0.20281799  0.50797115  0.03829545    -0.78480
O710        O  0.23939293  0.90971089  0.99272916    -0.78500
O711        O  0.17479131  0.96163000  0.46177258    -0.78510
O712        O  0.25217050  0.49898108  0.07146694    -0.78450
O713        O  0.18769966  0.93264143  0.50013140    -0.78580
O714        O  0.26539922  0.55841343  0.06907027    -0.78500
O715        O  0.24269650  0.93418899  0.03802024    -0.78480
O716        O  0.18594549  0.02273173  0.99340353    -0.78520
C717        C  0.17971098  0.51373185  0.02203152     1.11210
C718        C  0.24263384  0.90850222  0.02218362     1.11090
C719        C  0.16468065  0.93323428  0.47969942     1.11230
C720        C  0.25876162  0.52904494  0.08490558     1.11110
O721        O  0.31192874  0.57496913  0.01934439    -0.78480
O722        O  0.22518273  0.94768917  0.44251868    -0.78560
O723        O  0.25597887  0.56761769  0.46041482    -0.78490
O724        O  0.31701939  0.48425346  0.51255626    -0.78470
O725        O  0.29061863  0.97775587  0.46745813    -0.78530
O726        O  0.25028277  0.57973230  0.50817617    -0.78490
O727        O  0.32648390  0.53892371  0.04620304    -0.78450
O728        O  0.24441164  0.00643122  0.43008395    -0.78520
Co729      Co  0.25782126  0.53908500  0.02882031     1.51530
Co730      Co  0.24129209  0.95655583  0.48699919     1.51690
Co731      Co  0.21816731  0.01424177  0.46393024     1.51570
Co732      Co  0.28018096  0.49074574  0.03675368     1.51470
O733        O  0.25387868  0.00702570  0.99606215    -1.40410
C734        C  0.33657004  0.57025932  0.03383471     1.11140
C735        C  0.23665110  0.97425070  0.42256457     1.11230
C736        C  0.25622820  0.58957157  0.47960198     1.11160
C737        C  0.31898347  0.98452734  0.48361551     1.11140
O738        O  0.19774901  0.51801183  0.29370027    -0.78480
O739        O  0.23937840  0.91752107  0.25679028    -0.78500
O740        O  0.17257894  0.96401304  0.20338139    -0.78510
O741        O  0.26425687  0.46897875  0.31314803    -0.78450
O742        O  0.18156358  0.92018102  0.22607335    -0.78580
O743        O  0.25196730  0.51183369  0.32461800    -0.78500
O744        O  0.29788530  0.95608339  0.26835398    -0.78480
O745        O  0.16831984  0.97718094  0.25914889    -0.78520
C746        C  0.16729392  0.49303771  0.28238211     1.11210
C747        C  0.27226455  0.92348039  0.26195686     1.11090
C748        C  0.16126409  0.92977759  0.20995740     1.11230
C749        C  0.25426110  0.48359073  0.33245065     1.11110
O750        O  0.30913064  0.56120117  0.28085900    -0.78480
O751        O  0.23295845  0.97338295  0.18205630    -0.78560
O752        O  0.19390842  0.54025177  0.22142739    -0.78490
O753        O  0.31162933  0.52390394  0.23528331    -0.78470
O754        O  0.29108518  0.97155422  0.21239270    -0.78530
O755        O  0.24909635  0.56160287  0.24485147    -0.78490
O756        O  0.33428401  0.52585768  0.29587366    -0.78450
O757        O  0.24941817  0.02829387  0.19860200    -0.78520
Co758      Co  0.25094511  0.53263851  0.28275255     1.51530
Co759      Co  0.23602561  0.94777616  0.22175709     1.51690
Co760      Co  0.21067703  0.00426305  0.23116236     1.51570
Co761      Co  0.28710480  0.49790715  0.27463220     1.51470
O762        O  0.23790353  0.98319284  0.25519797    -1.40410
C763        C  0.33729403  0.55773174  0.29149356     1.11140
C764        C  0.24609138  0.00781469  0.17686998     1.11230
C765        C  0.22061105  0.56539209  0.23751715     1.11160
C766        C  0.31760392  0.00375845  0.21837272     1.11140
O767        O  0.17094279  0.66786142  0.01635164    -0.78480
O768        O  0.28208752  0.81671947  0.04255994    -0.78500
O769        O  0.23392442  0.69906363  0.06609976    -0.78510
O770        O  0.19404881  0.77543432  0.47468003    -0.78450
O771        O  0.27782376  0.75644059  0.07223099    -0.78580
O772        O  0.15826315  0.71781759  0.49239336    -0.78500
O773        O  0.22839067  0.79632931  0.52082541    -0.78480
O774        O  0.21075727  0.64929309  0.01763387    -0.78520
C775        C  0.17682951  0.64158324  0.01480287     1.11210
C776        C  0.25305585  0.81936894  0.03769272     1.11090
C777        C  0.25080567  0.72696983  0.08305498     1.11230
C778        C  0.16485736  0.75041634  0.48925146     1.11110
O779        O  0.19926430  0.72669759  0.43782123    -0.78480
O780        O  0.31634255  0.74436330  0.02014125    -0.78560
O781        O  0.26891892  0.70719836  0.97954197    -0.78490
O782        O  0.28032203  0.83369512  0.47412295    -0.78470
O783        O  0.30752880  0.80075508  0.48761720    -0.78530
O784        O  0.21291416  0.67151110  0.46137834    -0.78490
O785        O  0.25815181  0.76614264  0.44651536    -0.78450
O786        O  0.28585224  0.68496622  0.03604236    -0.78520
Co787      Co  0.18820889  0.69855479  0.47866862     1.51530
Co788      Co  0.28937968  0.77433639  0.02853532     1.51690
Co789      Co  0.25264918  0.70346192  0.02305273     1.51570
Co790      Co  0.24554616  0.78125408  0.48577993     1.51470
O791        O  0.23189617  0.73512991  0.00874957    -1.40410
C792        C  0.23225585  0.74597590  0.42792727     1.11140
C793        C  0.31515199  0.71272861  0.02500962     1.11230
C794        C  0.24702774  0.67983773  0.46402528     1.11160
C795        C  0.31033527  0.83258111  0.48232295     1.11140
O796        O  0.21307413  0.67584159  0.22079501    -0.78480
O797        O  0.24656438  0.80820452  0.23260993    -0.78500
O798        O  0.16774561  0.69998329  0.29591427    -0.78510
O799        O  0.24441547  0.76268365  0.19001927    -0.78450
O800        O  0.18717336  0.75480872  0.27109467    -0.78580
O801        O  0.26871100  0.72673601  0.18676683    -0.78500
O802        O  0.29618979  0.83783670  0.20358267    -0.78480
O803        O  0.18877140  0.70899997  0.23533520    -0.78520
C804        C  0.18571167  0.68176367  0.22141673     1.11210
C805        C  0.27372594  0.83910250  0.22251952     1.11090
C806        C  0.16206396  0.72631070  0.28663235     1.11230
C807        C  0.25031616  0.74100535  0.17442382     1.11110
O808        O  0.32234456  0.74181486  0.23541601    -0.78480
O809        O  0.24208296  0.77344956  0.32081503    -0.78560
O810        O  0.20615233  0.66467450  0.27841572    -0.78490
O811        O  0.32725295  0.81685823  0.25163769    -0.78470
O812        O  0.29696981  0.82561010  0.28704841    -0.78530
O813        O  0.26524436  0.68459126  0.27109112    -0.78490
O814        O  0.32364755  0.78547097  0.20278277    -0.78450
O815        O  0.23866579  0.72022331  0.31816956    -0.78520
Co816      Co  0.26753901  0.70987721  0.23084342     1.51530
Co817      Co  0.24482373  0.78657973  0.27556898     1.51690
Co818      Co  0.21453321  0.71681018  0.27650273     1.51570
Co819      Co  0.28346554  0.78973147  0.22366336     1.51470
O820        O  0.26208456  0.74855225  0.25586063    -1.40410
C821        C  0.33892384  0.76758073  0.21497723     1.11140
C822        C  0.24242646  0.74617064  0.33431911     1.11230
C823        C  0.23254942  0.65768309  0.27557541     1.11160
C824        C  0.32743587  0.83284358  0.27538641     1.11140
C825        C  0.23985157  0.74500867  0.39559762    -0.11620
C826        C  0.24337409  0.74417989  0.36790101    -0.13170
C827        C  0.24071115  0.72715795  0.11484388    -0.11620
C828        C  0.24026264  0.73393233  0.14187680    -0.13170
C829        C  0.28159254  0.87271081  0.23694884    -0.11620
C830        C  0.28136458  0.89692492  0.25108316    -0.13170
C831        C  0.21840465  0.59510230  0.25107870    -0.11620
C832        C  0.22318364  0.62175785  0.26491354    -0.13170
C833        C  0.24143393  0.96835468  0.39120504    -0.11620
C834        C  0.24687587  0.47030957  0.36388417    -0.13170
C835        C  0.25607717  0.52792635  0.11791446    -0.11620
C836        C  0.25332740  0.02208313  0.14554140    -0.13170
C837        C  0.25063923  0.85199702  0.04372403    -0.11620
C838        C  0.24585890  0.87824373  0.03747351    -0.13170
C839        C  0.25636168  0.65113870  0.46121822    -0.11620
C840        C  0.25931319  0.62412779  0.46814679    -0.13170
C841        C  0.40035660  0.62159502  0.29125227    -0.11620
C842        C  0.37317770  0.59098255  0.29423103    -0.13170
C843        C  0.12539249  0.90058609  0.20017705    -0.11620
C844        C  0.09734303  0.87062580  0.19935084    -0.13170
C845        C  0.37367155  0.77381896  0.20399194    -0.11620
C846        C  0.40007921  0.76990370  0.19997244    -0.13170
C847        C  0.12680001  0.72395921  0.29138545    -0.11620
C848        C  0.09919548  0.72668394  0.29340830    -0.13170
C849        C  0.49072898  0.75848623  0.38824949    -0.11620
C850        C  0.99594137  0.75932069  0.36068477    -0.13170
C851        C  0.50304986  0.74896071  0.14088337    -0.11620
C852        C  0.00743929  0.75739789  0.11352102    -0.13170
C853        C  0.40783174  0.62605300  0.03766336    -0.11620
C854        C  0.37565480  0.59989597  0.03712790    -0.13170
C855        C  0.09928517  0.87183311  0.46680337    -0.11620
C856        C  0.12853396  0.90008568  0.47332889    -0.13170
C857        C  0.36943301  0.71150582  0.49515409    -0.11620
C858        C  0.34362303  0.70782192  0.01062185    -0.13170
C859        C  0.14132110  0.75711080  0.50857162    -0.11620
C860        C  0.11714898  0.75065658  0.02714959    -0.13170
C861        C  0.39096075  0.89293736  0.28245008    -0.11620
C862        C  0.36244143  0.86346933  0.28559919    -0.13170
C863        C  0.12287778  0.62104196  0.21888348    -0.11620
C864        C  0.14944439  0.65150068  0.21532856    -0.13170
C865        C  0.38273543  0.00792973  0.22293882    -0.11620
C866        C  0.35519537  0.01042223  0.21625618    -0.13170
C867        C  0.13144930  0.48785315  0.29103412    -0.11620
C868        C  0.10268318  0.48900057  0.28677361    -0.13170
C869        C  0.00905996  0.87262769  0.25183957    -0.11620
C870        C  0.01013822  0.90086673  0.24202416    -0.13170
C871        C  0.51166953  0.64937543  0.22868343    -0.11620
C872        C  0.51499883  0.62248127  0.23510884    -0.13170
C873        C  0.51517286  0.03846487  0.35508133    -0.11620
C874        C  0.51328219  0.53235952  0.38272996    -0.13170
C875        C  0.97521769  0.49003628  0.10632553    -0.11620
C876        C  0.97315137  0.48484155  0.13412170    -0.13170
C877        C  0.34541124  0.86460130  0.49142996    -0.11620
C878        C  0.37666550  0.88794708  0.99999344    -0.13170
C879        C  0.11994932  0.59104349  0.48333882    -0.11620
C880        C  0.14869925  0.61032913  0.99792301    -0.13170
C881        C  0.35340502  0.99257208  0.46939325    -0.11620
C882        C  0.38439048  0.00105494  0.46080193    -0.13170
C883        C  0.11986381  0.51420086  0.04428862    -0.11620
C884        C  0.14753601  0.51307523  0.03622687    -0.13170
C885        C  0.00641615  0.87307044  0.00295210    -0.11540
C886        C  0.50174257  0.89582394  0.48738997    -0.13170
C887        C  0.53249781  0.65846532  0.49686789    -0.11620
C888        C  0.03697339  0.63358263  0.00955269    -0.13170
O889        O  0.05550599  0.58752351  0.52498046    -0.78480
O890        O  0.41812978  0.94558267  0.48249799    -0.78500
O891        O  0.44626580  0.53564862  0.97725719    -0.78510
O892        O  0.97908263  0.96462080  0.56144527    -0.78450
O893        O  0.43500027  0.99725327  0.94081011    -0.78580
O894        O  0.00946505  0.52525175  0.56257763    -0.78500
O895        O  0.44264355  0.92011754  0.51403609    -0.78480
O896        O  0.49875585  0.57006979  0.01627753    -0.78520
C897        C  0.03040598  0.59670237  0.52086850     1.11210
C898        C  0.41404512  0.91973850  0.50048644     1.11090
C899        C  0.42353060  0.51243762  0.95870697     1.11230
C900        C  0.98742985  0.99380052  0.57503424     1.11110
O901        O  0.08311344  0.54347820  0.54971456    -0.78480
O902        O  0.50397733  0.99577095  0.92830587    -0.78560
O903        O  0.05856876  0.58057782  0.97072226    -0.78490
O904        O  0.02094246  0.95788989  0.48453127    -0.78470
O905        O  0.47003849  0.92485385  0.96149387    -0.78530
O906        O  0.06668721  0.53511682  0.98786198    -0.78490
O907        O  0.05443035  0.98582835  0.53499859    -0.78450
O908        O  0.49999530  0.54648654  0.92979894    -0.78520
Co909      Co  0.03816771  0.53050492  0.52449551     1.51530
Co910      Co  0.46168135  0.96996838  0.95702229     1.51690
Co911      Co  0.50036366  0.55469696  0.97501213     1.51570
Co912      Co  0.99823696  0.96160034  0.52144968     1.51470
O913        O  0.99210585  0.50430178  0.49570431    -1.40410
C914        C  0.08425058  0.01423886  0.54515208     1.11140
C915        C  0.50717000  0.52515382  0.91534417     1.11230
C916        C  0.08042764  0.56720345  0.97662124     1.11160
C917        C  0.49932561  0.92741220  0.97412744     1.11140
O918        O  0.01731633  0.51044812  0.67285843    -0.78480
O919        O  0.48122876  0.55842226  0.74029708    -0.78500
O920        O  0.43204106  0.99464603  0.71750094    -0.78510
O921        O  0.09073676  0.57199871  0.75479504    -0.78450
O922        O  0.41896242  0.00316814  0.76490218    -0.78580
O923        O  0.07526778  0.56351811  0.70479771    -0.78500
O924        O  0.03697153  0.58543177  0.76104929    -0.78480
O925        O  0.46369502  0.96022526  0.68597659    -0.78520
C926        C  0.98455106  0.48511940  0.66603524     1.11210
C927        C  0.51130512  0.58742883  0.74566747     1.11090
C928        C  0.41159656  0.00087842  0.73569378     1.11230
C929        C  0.09505075  0.58391409  0.72658264     1.11110
O930        O  0.08266502  0.50796340  0.74204287    -0.78480
O931        O  0.44411129  0.95471881  0.77853640    -0.78560
O932        O  0.48627945  0.93963886  0.74712835    -0.78490
O933        O  0.05260385  0.55669849  0.81202227    -0.78470
O934        O  0.48911004  0.02631694  0.80397408    -0.78530
O935        O  0.02452453  0.95335217  0.70884676    -0.78490
O936        O  0.05041215  0.49861538  0.78464875    -0.78450
O937        O  0.41517809  0.92504812  0.73599325    -0.78520
Co938      Co  0.04796990  0.50909137  0.70819293     1.51530
Co939      Co  0.46732205  0.00848144  0.75856339     1.51690
Co940      Co  0.46263689  0.96882504  0.73147768     1.51570
Co941      Co  0.03959262  0.53916175  0.77228427     1.51470
O942        O  0.01233700  0.51357116  0.73626032    -1.40410
C943        C  0.07649548  0.49779505  0.77054805     1.11140
C944        C  0.41750999  0.92547909  0.76536571     1.11230
C945        C  0.00711544  0.93273537  0.73197812     1.11160
C946        C  0.51921968  0.04187127  0.82213166     1.11140
O947        O  0.43076987  0.68071427  0.51019932    -0.78480
O948        O  0.04191543  0.84501070  0.52027229    -0.78500
O949        O  0.99772953  0.73136545  0.56600920    -0.78510
O950        O  0.42973341  0.75954729  0.99281224    -0.78450
O951        O  0.03367066  0.79137356  0.56665672    -0.78580
O952        O  0.41773911  0.71463933  0.96319492    -0.78500
O953        O  0.48324207  0.81150776  0.01840242    -0.78480
O954        O  0.47430266  0.67280998  0.53446960    -0.78520
C955        C  0.43941816  0.66174109  0.52835076     1.11210
C956        C  0.01049488  0.84325232  0.51829261     1.11090
C957        C  0.01248656  0.76068299  0.58054027     1.11230
C958        C  0.40673383  0.72896732  0.98245557     1.11110
O959        O  0.48963550  0.72990840  0.93640415    -0.78480
O960        O  0.07882313  0.77432013  0.52766077    -0.78560
O961        O  0.53871097  0.71846678  0.49012602    -0.78490
O962        O  0.03278543  0.83253660  0.96340900    -0.78470
O963        O  0.06746657  0.80920022  0.97978917    -0.78530
O964        O  0.48594281  0.67322334  0.97795408    -0.78490
O965        O  0.47270357  0.77272981  0.93455165    -0.78450
O966        O  0.05548544  0.71819607  0.54970785    -0.78520
Co967      Co  0.46109473  0.70570918  0.97415919     1.51530
Co968      Co  0.04807316  0.79885223  0.52163691     1.51690
Co969      Co  0.01809275  0.72732264  0.52750471     1.51570
Co970      Co  0.48052955  0.79091009  0.97853027     1.51470
O971        O  0.49560954  0.75367809  0.50138588    -1.40410
C972        C  0.48474160  0.75405496  0.92136139     1.11140
C973        C  0.08333995  0.74785552  0.53838483     1.11230
C974        C  0.52002306  0.68471906  0.98482056     1.11160
C975        C  0.06521007  0.83547319  0.96668119     1.11140
O976        O  0.41883815  0.67844772  0.76543625    -0.78480
O977        O  0.03409839  0.83504486  0.76951250    -0.78500
O978        O  0.98485572  0.72716701  0.81498565    -0.78510
O979        O  0.45825181  0.77436791  0.69356111    -0.78450
O980        O  0.02931524  0.78463620  0.81440159    -0.78580
O981        O  0.41696263  0.72957462  0.72393933    -0.78500
O982        O  0.48386568  0.81086412  0.74147427    -0.78480
O983        O  0.46326764  0.66751029  0.78319156    -0.78520
C984        C  0.42876381  0.65789875  0.78067115     1.11210
C985        C  0.00762594  0.83757007  0.75633041     1.11090
C986        C  0.00319327  0.75715875  0.82856044     1.11230
C987        C  0.42592497  0.75696850  0.70524043     1.11110
O988        O  0.46237415  0.71853105  0.68213866    -0.78480
O989        O  0.07003763  0.76057452  0.77539342    -0.78560
O990        O  0.52404264  0.70851262  0.73994815    -0.78490
O991        O  0.03320897  0.82855647  0.69537078    -0.78470
O992        O  0.06796801  0.81233334  0.72652356    -0.78530
O993        O  0.46714833  0.66887861  0.72472637    -0.78490
O994        O  0.52050868  0.75837229  0.69316846    -0.78450
O995        O  0.03656737  0.70701949  0.80223669    -0.78520
Co996      Co  0.44434270  0.70206852  0.72598151     1.51530
Co997      Co  0.04279710  0.79156939  0.76923567     1.51690
Co998      Co  0.00566055  0.72011228  0.77735205     1.51570
Co999      Co  0.50383954  0.78476317  0.71946713     1.51470
O1000       O  0.48628604  0.74645646  0.75161359    -1.40410
C1001       C  0.49571224  0.73974791  0.67337786     1.11140
C1002       C  0.06760202  0.73226463  0.79162941     1.11230
C1003       C  0.50134714  0.67771710  0.72876260     1.11160
C1004       C  0.06501105  0.83566434  0.70683566     1.11140
O1005       O  0.20281817  0.50797077  0.53829523    -0.78480
O1006       O  0.23939326  0.90971053  0.49272912    -0.78500
O1007       O  0.17479159  0.96163087  0.96177270    -0.78510
O1008       O  0.25217029  0.49898057  0.57146677    -0.78450
O1009       O  0.18769971  0.93264223  0.00013157    -0.78580
O1010       O  0.26539929  0.55841300  0.56907003    -0.78500
O1011       O  0.24269664  0.93418862  0.53802018    -0.78480
O1012       O  0.18594489  0.02273101  0.49340315    -0.78520
C1013       C  0.17971135  0.51373189  0.52203151     1.11210
C1014       C  0.24263421  0.90850194  0.52218358     1.11090
C1015       C  0.16468077  0.93323513  0.97969955     1.11230
C1016       C  0.25876152  0.52904449  0.58490539     1.11110
O1017       O  0.31192862  0.57496866  0.51934398    -0.78480
O1018       O  0.22518271  0.94768988  0.94251875    -0.78560
O1019       O  0.25597893  0.56761802  0.96041507    -0.78490
O1020       O  0.31701959  0.48425414  0.01255625    -0.78470
O1021       O  0.29061848  0.97775619  0.96745809    -0.78530
O1022       O  0.25028272  0.57973264  0.00817639    -0.78490
O1023       O  0.32648370  0.53892330  0.54620282    -0.78450
O1024       O  0.24441195  0.00643203  0.93008408    -0.78520
Co1025     Co  0.25782132  0.53908460  0.52882002     1.51530
Co1026     Co  0.24129209  0.95655637  0.98699927     1.51690
Co1027     Co  0.21816775  0.01424259  0.96393048     1.51570
Co1028     Co  0.28018075  0.49074520  0.53675351     1.51470
O1029       O  0.25387823  0.00702505  0.49606200    -1.40410
C1030       C  0.33656987  0.57025889  0.53383440     1.11140
C1031       C  0.23665123  0.97425145  0.92256467     1.11230
C1032       C  0.25622822  0.58957191  0.97960221     1.11160
C1033       C  0.31898327  0.98452735  0.98361539     1.11140
O1034       O  0.19774917  0.51801192  0.79370037    -0.78480
O1035       O  0.23937807  0.91752092  0.75679033    -0.78500
O1036       O  0.17257868  0.96401302  0.70338144    -0.78510
O1037       O  0.26425659  0.46897865  0.81314818    -0.78450
O1038       O  0.18156330  0.92018100  0.72607344    -0.78580
O1039       O  0.25196747  0.51183390  0.82461811    -0.78500
O1040       O  0.29788497  0.95608316  0.76835405    -0.78480
O1041       O  0.16831977  0.97718106  0.75914895    -0.78520
C1042       C  0.16729408  0.49303785  0.78238217     1.11210
C1043       C  0.27226420  0.92348019  0.76195691     1.11090
C1044       C  0.16126383  0.92977757  0.70995747     1.11230
C1045       C  0.25426104  0.48359083  0.83245081     1.11110
O1046       O  0.30913073  0.56120107  0.78085898    -0.78480
O1047       O  0.23295814  0.97338273  0.68205631    -0.78560
O1048       O  0.19390865  0.54025203  0.72142734    -0.78490
O1049       O  0.31162942  0.52390375  0.73528349    -0.78470
O1050       O  0.29108488  0.97155392  0.71239270    -0.78530
O1051       O  0.24909649  0.56160291  0.74485150    -0.78490
O1052       O  0.33428386  0.52585744  0.79587390    -0.78450
O1053       O  0.24941790  0.02829372  0.69860186    -0.78520
Co1054     Co  0.25094524  0.53263859  0.78275261     1.51530
Co1055     Co  0.23602532  0.94777601  0.72175712     1.51690
Co1056     Co  0.21067688  0.00426306  0.73116233     1.51570
Co1057     Co  0.28710470  0.49790702  0.77463236     1.51470
O1058       O  0.23790335  0.98319281  0.75519795    -1.40410
C1059       C  0.33729403  0.55773154  0.79149362     1.11140
C1060       C  0.24609098  0.00781444  0.67686988     1.11230
C1061       C  0.22061125  0.56539223  0.73751721     1.11160
C1062       C  0.31760369  0.00375812  0.71837271     1.11140
O1063       O  0.17094362  0.66786167  0.51635226    -0.78480
O1064       O  0.28208835  0.81671957  0.54255968    -0.78500
O1065       O  0.23392496  0.69906359  0.56609988    -0.78510
O1066       O  0.19404864  0.77543440  0.97467959    -0.78450
O1067       O  0.27782417  0.75644065  0.57223100    -0.78580
O1068       O  0.15826271  0.71781764  0.99239269    -0.78500
O1069       O  0.22839009  0.79632948  0.02082523    -0.78480
O1070       O  0.21075767  0.64929293  0.51763401    -0.78520
C1071       C  0.17683000  0.64158334  0.51480312     1.11210
C1072       C  0.25305659  0.81936893  0.53769268     1.11090
C1073       C  0.25080614  0.72696986  0.58305504     1.11230
C1074       C  0.16485713  0.75041647  0.98925096     1.11110
O1075       O  0.19926451  0.72669794  0.93782094    -0.78480
O1076       O  0.31634288  0.74436296  0.52014146    -0.78560
O1077       O  0.26891930  0.70719807  0.47954208    -0.78490
O1078       O  0.28032130  0.83369536  0.97412284    -0.78470
O1079       O  0.30752827  0.80075555  0.98761735    -0.78530
O1080       O  0.21291392  0.67151116  0.96137814    -0.78490
O1081       O  0.25815193  0.76614294  0.94651548    -0.78450
O1082       O  0.28585251  0.68496586  0.53604254    -0.78520
Co1083     Co  0.18820860  0.69855489  0.97866820     1.51530
Co1084     Co  0.28938022  0.77433625  0.52853530     1.51690
Co1085     Co  0.25264963  0.70346174  0.52305285     1.51570
Co1086     Co  0.24554589  0.78125429  0.98577993     1.51470
O1087       O  0.23189670  0.73512983  0.50874968    -1.40410
C1088       C  0.23225617  0.74597627  0.92792723     1.11140
C1089       C  0.31515226  0.71272826  0.52500985     1.11230
C1090       C  0.24702753  0.67983793  0.96402520     1.11160
C1091       C  0.31033454  0.83258151  0.98232316     1.11140
O1092       O  0.21307415  0.67584153  0.72079524    -0.78480
O1093       O  0.24656426  0.80820438  0.73260994    -0.78500
O1094       O  0.16774578  0.69998339  0.79591462    -0.78510
O1095       O  0.24441545  0.76268353  0.69001929    -0.78450
O1096       O  0.18717337  0.75480868  0.77109482    -0.78580
O1097       O  0.26871097  0.72673585  0.68676695    -0.78500
O1098       O  0.29618966  0.83783662  0.70358267    -0.78480
O1099       O  0.18877127  0.70899978  0.73533547    -0.78520
C1100       C  0.18571166  0.68176355  0.72141694     1.11210
C1101       C  0.27372575  0.83910238  0.72251950     1.11090
C1102       C  0.16206405  0.72631073  0.78663263     1.11230
C1103       C  0.25031619  0.74100524  0.67442388     1.11110
O1104       O  0.32234460  0.74181488  0.73541610    -0.78480
O1105       O  0.24208314  0.77344970  0.82081508    -0.78560
O1106       O  0.20615244  0.66467452  0.77841599    -0.78490
O1107       O  0.32725292  0.81685821  0.75163767    -0.78470
O1108       O  0.29696980  0.82561016  0.78704836    -0.78530
O1109       O  0.26524447  0.68459135  0.77109132    -0.78490
O1110       O  0.32364753  0.78547091  0.70278279    -0.78450
O1111       O  0.23866614  0.72022353  0.81816967    -0.78520
Co1112     Co  0.26753904  0.70987718  0.73084358     1.51530
Co1113     Co  0.24482373  0.78657973  0.77556902     1.51690
Co1114     Co  0.21453330  0.71681020  0.77650293     1.51570
Co1115     Co  0.28346550  0.78973141  0.72366336     1.51470
O1116       O  0.26208457  0.74855224  0.75586068    -1.40410
C1117       C  0.33892383  0.76758069  0.71497727     1.11140
C1118       C  0.24242685  0.74617090  0.83431917     1.11230
C1119       C  0.23254955  0.65768315  0.77557564     1.11160
C1120       C  0.32743585  0.83284357  0.77538638     1.11140
C1121       C  0.23985220  0.74500913  0.89559765    -0.11620
C1122       C  0.24337472  0.74418031  0.86790107    -0.13170
C1123       C  0.24071156  0.72715802  0.61484391    -0.11620
C1124       C  0.24026288  0.73393233  0.64187682    -0.13170
C1125       C  0.28159226  0.87271067  0.73694880    -0.11620
C1126       C  0.28136421  0.89692473  0.75108314    -0.13170
C1127       C  0.21840487  0.59510240  0.75107887    -0.11620
C1128       C  0.22318381  0.62175792  0.76491374    -0.13170
C1129       C  0.24143402  0.96835537  0.89120513    -0.11620
C1130       C  0.24687582  0.47030976  0.86388437    -0.13170
C1131       C  0.25607705  0.52792598  0.61791429    -0.11620
C1132       C  0.25332670  0.02208269  0.64554123    -0.13170
C1133       C  0.25063997  0.85199699  0.54372399    -0.11620
C1134       C  0.24585951  0.87824361  0.53747349    -0.13170
C1135       C  0.25636164  0.65113898  0.96121835    -0.11620
C1136       C  0.25931321  0.62412813  0.96814699    -0.13170
C1137       C  0.40035669  0.62159463  0.79125175    -0.11620
C1138       C  0.37317779  0.59098224  0.79423084    -0.13170
C1139       C  0.12539227  0.90058606  0.70017707    -0.11620
C1140       C  0.09734289  0.87062572  0.69935080    -0.13170
C1141       C  0.37367151  0.77381887  0.70399192    -0.11620
C1142       C  0.40007914  0.76990359  0.69997233    -0.13170
C1143       C  0.12680009  0.72395923  0.79138574    -0.11620
C1144       C  0.09919556  0.72668400  0.79340851    -0.13170
C1145       C  0.49072867  0.75848480  0.88824942    -0.11620
C1146       C  0.99594163  0.75932105  0.86068481    -0.13170
C1147       C  0.50305043  0.74896166  0.64088310    -0.11620
C1148       C  0.00743888  0.75739758  0.61352101    -0.13170
C1149       C  0.40783130  0.62605299  0.53766295    -0.11620
C1150       C  0.37565453  0.59989567  0.53712761    -0.13170
C1151       C  0.09928527  0.87183392  0.96680350    -0.11620
C1152       C  0.12853404  0.90008655  0.97332899    -0.13170
C1153       C  0.36943270  0.71150572  0.99515394    -0.11620
C1154       C  0.34362329  0.70782162  0.51062211    -0.13170
C1155       C  0.14132121  0.75711107  0.00857137    -0.11620
C1156       C  0.11714869  0.75065622  0.52714969    -0.13170
C1157       C  0.39096074  0.89293728  0.78245010    -0.11620
C1158       C  0.36244141  0.86346927  0.78559919    -0.13170
C1159       C  0.12287789  0.62104178  0.71888332    -0.11620
C1160       C  0.14944443  0.65150058  0.71532857    -0.13170
C1161       C  0.38273522  0.00792938  0.72293869    -0.11620
C1162       C  0.35519512  0.01042183  0.71625612    -0.13170
C1163       C  0.13144947  0.48785315  0.79103435    -0.11620
C1164       C  0.10268330  0.48900047  0.78677389    -0.13170
C1165       C  0.00906004  0.87262772  0.75183949    -0.11620
C1166       C  0.01013830  0.90086677  0.74202411    -0.13170
C1167       C  0.51166977  0.64937541  0.72868278    -0.11620
C1168       C  0.51499906  0.62248126  0.73510835    -0.13170
C1169       C  0.51517253  0.03846425  0.85508117    -0.11620
C1170       C  0.51328238  0.53235917  0.88272974    -0.13170
C1171       C  0.97521820  0.49003571  0.60632554    -0.11620
C1172       C  0.97315174  0.48484097  0.63412170    -0.13170
C1173       C  0.34541025  0.86460173  0.99143048    -0.11620
C1174       C  0.37666653  0.88794674  0.49999283    -0.13170
C1175       C  0.11994881  0.59104252  0.98333923    -0.11620
C1176       C  0.14869973  0.61032979  0.49792275    -0.13170
C1177       C  0.35340469  0.99257204  0.96939301    -0.11620
C1178       C  0.38439010  0.00105490  0.96080162    -0.13170
C1179       C  0.11986535  0.51420239  0.54428930    -0.11620
C1180       C  0.14753709  0.51307620  0.53622722    -0.13170
C1181       C  0.00641670  0.87307080  0.50295190    -0.11540
C1182       C  0.50174082  0.89582271  0.98738998    -0.13170
C1183       C  0.53249844  0.65846545  0.99686767    -0.11620
C1184       C  0.03697299  0.63358224  0.50955273    -0.13170
O1185       O  0.55549921  0.08751719  0.02498493    -0.78480
O1186       O  0.91813263  0.44558928  0.98249451    -0.78500
O1187       O  0.94625694  0.03564102  0.47726461    -0.78510
O1188       O  0.47909405  0.46462679  0.06144214    -0.78450
O1189       O  0.93500963  0.49725886  0.44080554    -0.78580
O1190       O  0.50945063  0.02524542  0.06258099    -0.78500
O1191       O  0.94264636  0.42012601  0.01403534    -0.78480
O1192       O  0.99874935  0.07006431  0.51628454    -0.78520
C1193       C  0.53039990  0.09669663  0.02087360     1.11210
C1194       C  0.91404796  0.41974777  0.00048652     1.11090
C1195       C  0.92352275  0.01243209  0.45871230     1.11230
C1196       C  0.48744633  0.49380702  0.07503221     1.11110
O1197       O  0.58310215  0.04347344  0.04972260    -0.78480
O1198       O  0.00398523  0.49577191  0.42830470    -0.78560
O1199       O  0.55855926  0.08057125  0.47072649    -0.78490
O1200       O  0.52094158  0.45788938  0.98452419    -0.78470
O1201       O  0.97004023  0.42485514  0.46149169    -0.78530
O1202       O  0.56668223  0.03511331  0.48787007    -0.78490
O1203       O  0.55443545  0.48582983  0.03498997    -0.78450
O1204       O  0.99998422  0.04648394  0.42980494    -0.78520
Co1205     Co  0.53815797  0.03049894  0.02450105     1.51530
Co1206     Co  0.96168759  0.46997200  0.45701957     1.51690
Co1207     Co  0.00035507  0.05469160  0.47501857     1.51570
Co1208     Co  0.49824172  0.46160407  0.02144442     1.51470
O1209       O  0.49209825  0.00429649  0.99570771    -1.40410
C1210       C  0.58425694  0.51423918  0.04514310     1.11140
C1211       C  0.00715899  0.02515341  0.41534724     1.11230
C1212       C  0.58041915  0.06719775  0.47662461     1.11160
C1213       C  0.99932814  0.42741376  0.47412333     1.11140
O1214       O  0.51726587  0.01044795  0.17286007    -0.78480
O1215       O  0.98118500  0.05841966  0.24030118    -0.78500
O1216       O  0.93208985  0.49465077  0.21749106    -0.78510
O1217       O  0.59069574  0.07198897  0.25479625    -0.78450
O1218       O  0.91900350  0.50316876  0.26489108    -0.78580
O1219       O  0.57522494  0.06351590  0.20479942    -0.78500
O1220       O  0.53693381  0.08542887  0.26104317    -0.78480
O1221       O  0.96374651  0.46022670  0.18597478    -0.78520
C1222       C  0.48450156  0.98511734  0.16603613     1.11210
C1223       C  0.01126614  0.08742479  0.24566293     1.11090
C1224       C  0.91164250  0.50088169  0.23568188     1.11230
C1225       C  0.59501272  0.08390780  0.22658508     1.11110
O1226       O  0.58261131  0.00795128  0.24204155    -0.78480
O1227       O  0.94414346  0.45471445  0.27852802    -0.78560
O1228       O  0.98632448  0.43964546  0.24712913    -0.78490
O1229       O  0.55256689  0.05669871  0.31201972    -0.78470
O1230       O  0.98914713  0.52631502  0.30396992    -0.78530
O1231       O  0.52457758  0.45335748  0.20885325    -0.78490
O1232       O  0.55036114  0.99860774  0.28464882    -0.78450
O1233       O  0.91522370  0.42505135  0.23597958    -0.78520
Co1234     Co  0.54792022  0.00908705  0.20819186     1.51530
Co1235     Co  0.96736338  0.50848170  0.25855764     1.51690
Co1236     Co  0.96268332  0.46882932  0.23147294     1.51570
Co1237     Co  0.53954944  0.03915830  0.27228324     1.51470
O1238       O  0.51229048  0.01356757  0.23626115    -1.40410
C1239       C  0.57644116  0.99778286  0.27054683     1.11140
C1240       C  0.91754432  0.42547713  0.26535187     1.11230
C1241       C  0.50716520  0.43274294  0.23198457     1.11160
C1242       C  0.01925418  0.54186988  0.32213057     1.11140
O1243       O  0.93077275  0.18071818  0.01021219    -0.78480
O1244       O  0.54191406  0.34501008  0.02026595    -0.78500
O1245       O  0.49773961  0.23136842  0.06601307    -0.78510
O1246       O  0.92973306  0.25954574  0.49281270    -0.78450
O1247       O  0.53367050  0.29137860  0.06665409    -0.78580
O1248       O  0.91773648  0.21463389  0.46319937    -0.78500
O1249       O  0.98324392  0.31150961  0.51839893    -0.78480
O1250       O  0.97430535  0.17280929  0.03447659    -0.78520
C1251       C  0.93942056  0.16174240  0.02836056     1.11210
C1252       C  0.51049322  0.34325112  0.01828675     1.11090
C1253       C  0.51249135  0.26068863  0.08054040     1.11230
C1254       C  0.90673233  0.22896480  0.48245797     1.11110
O1255       O  0.98962932  0.22989623  0.43640932    -0.78480
O1256       O  0.57882312  0.27432035  0.02766174    -0.78560
O1257       O  0.03870936  0.21846129  0.99012692    -0.78490
O1258       O  0.53278564  0.33253053  0.46340465    -0.78470
O1259       O  0.56746562  0.30919390  0.47978707    -0.78530
O1260       O  0.98593769  0.17321749  0.47796257    -0.78490
O1261       O  0.97270090  0.27272035  0.43455222    -0.78450
O1262       O  0.55549152  0.21819626  0.04970716    -0.78520
Co1263     Co  0.96109184  0.20570476  0.47416621     1.51530
Co1264     Co  0.54807338  0.29885236  0.02163520     1.51690
Co1265     Co  0.51809635  0.22732133  0.02750654     1.51570
Co1266     Co  0.98052949  0.29090664  0.47852882     1.51470
O1267       O  0.99561006  0.25367548  0.00138838    -1.40410
C1268       C  0.98473453  0.25404049  0.42136404     1.11140
C1269       C  0.58334381  0.24785754  0.03838409     1.11230
C1270       C  0.02001869  0.18471337  0.48482569     1.11160
C1271       C  0.56521018  0.33546655  0.46667740     1.11140
O1272       O  0.91882124  0.17845189  0.26542694    -0.78480
O1273       O  0.53411535  0.33503668  0.26953057    -0.78500
O1274       O  0.48484316  0.22713987  0.31498633    -0.78510
O1275       O  0.95826459  0.27439599  0.19357208    -0.78450
O1276       O  0.52930428  0.28460919  0.31440915    -0.78580
O1277       O  0.91696685  0.22959719  0.22394228    -0.78500
O1278       O  0.98388140  0.31087052  0.24149474    -0.78480
O1279       O  0.96323770  0.16749199  0.28317633    -0.78520
C1280       C  0.92873613  0.15789171  0.28065683     1.11210
C1281       C  0.50764756  0.33757154  0.25635118     1.11090
C1282       C  0.50318031  0.25712978  0.32856415     1.11230
C1283       C  0.92593431  0.25699389  0.20524599     1.11110
O1284       O  0.96236976  0.21855147  0.18213643    -0.78480
O1285       O  0.57002331  0.26054680  0.27539941    -0.78560
O1286       O  0.02402344  0.20850447  0.23993801    -0.78490
O1287       O  0.53323292  0.32857079  0.19539345    -0.78470
O1288       O  0.56797541  0.31232022  0.22653900    -0.78530
O1289       O  0.96712724  0.16888153  0.22471225    -0.78490
O1290       O  0.02050764  0.25837946  0.19316990    -0.78450
O1291       O  0.53654239  0.20697942  0.30222359    -0.78520
Co1292     Co  0.94433358  0.20208001  0.22597666     1.51530
Co1293     Co  0.54279521  0.29155130  0.26924630     1.51690
Co1294     Co  0.50564350  0.22009143  0.27734695     1.51570
Co1295     Co  0.00384717  0.28476966  0.21947823     1.51470
O1296       O  0.98628145  0.24645374  0.25161729    -1.40410
C1297       C  0.99570967  0.23976238  0.17337766     1.11140
C1298       C  0.56758123  0.23222951  0.29162629     1.11230
C1299       C  0.00132460  0.17771438  0.22874657     1.11160
C1300       C  0.56503122  0.33566376  0.20685782     1.11140
O1301       O  0.70281861  0.00798323  0.03829627    -0.78480
O1302       O  0.73939732  0.40970188  0.99273582    -0.78500
O1303       O  0.67480101  0.46162075  0.46176664    -0.78510
O1304       O  0.75216842  0.99898930  0.07146425    -0.78450
O1305       O  0.68770205  0.43263225  0.50012988    -0.78580
O1306       O  0.76540314  0.05842424  0.06906638    -0.78500
O1307       O  0.74269981  0.43418433  0.03802445    -0.78480
O1308       O  0.68594813  0.52271768  0.99339977    -0.78520
C1309       C  0.67970987  0.01374383  0.02203505     1.11210
C1310       C  0.74263721  0.40849602  0.02219050     1.11090
C1311       C  0.66468611  0.43322543  0.47969477     1.11230
C1312       C  0.75875959  0.02905417  0.08490172     1.11110
O1313       O  0.81193049  0.07497563  0.01934038    -0.78480
O1314       O  0.72519593  0.44768230  0.44252066    -0.78560
O1315       O  0.75597171  0.06762458  0.46041210    -0.78490
O1316       O  0.81701246  0.98426038  0.51254973    -0.78470
O1317       O  0.79062532  0.47774612  0.46746514    -0.78530
O1318       O  0.75028423  0.07974331  0.50817414    -0.78490
O1319       O  0.82648003  0.03892762  0.04620130    -0.78450
O1320       O  0.74442703  0.50642492  0.43008548    -0.78520
Co1321     Co  0.75782209  0.03909476  0.02881770     1.51530
Co1322     Co  0.74129692  0.45654683  0.48700297     1.51690
Co1323     Co  0.71817613  0.51423296  0.46392902     1.51570
Co1324     Co  0.78017607  0.99075193  0.03674951     1.51470
O1325       O  0.75388339  0.50701696  0.99606506    -1.40410
C1326       C  0.83656949  0.07026368  0.03383276     1.11140
C1327       C  0.73667200  0.47424529  0.42256743     1.11230
C1328       C  0.75622699  0.08958090  0.47959947     1.11160
C1329       C  0.81899060  0.48451950  0.48362234     1.11140
O1330       O  0.69769517  0.01800681  0.29368930    -0.78480
O1331       O  0.73943356  0.41752450  0.25680147    -0.78500
O1332       O  0.67262168  0.46400398  0.20340181    -0.78510
O1333       O  0.76419668  0.96897872  0.31313858    -0.78450
O1334       O  0.68161185  0.42017345  0.22608920    -0.78580
O1335       O  0.75191587  0.01183849  0.32461007    -0.78500
O1336       O  0.79794303  0.45608432  0.26835639    -0.78480
O1337       O  0.66837372  0.47717561  0.25916884    -0.78520
C1338       C  0.66724057  0.99303498  0.28236817     1.11210
C1339       C  0.77231980  0.42348190  0.26196086     1.11090
C1340       C  0.66130736  0.42976870  0.20997911     1.11230
C1341       C  0.75420531  0.98359304  0.33244208     1.11110
O1342       O  0.80907949  0.06120466  0.28084896    -0.78480
O1343       O  0.73299765  0.47337638  0.18206600    -0.78560
O1344       O  0.69386212  0.04025898  0.22141033    -0.78490
O1345       O  0.81157690  0.02390345  0.23527682    -0.78470
O1346       O  0.79113169  0.47155484  0.21239626    -0.78530
O1347       O  0.74904529  0.06159833  0.24483932    -0.78490
O1348       O  0.83422760  0.02585841  0.29586805    -0.78450
O1349       O  0.74946051  0.52828803  0.19861193    -0.78520
Co1350     Co  0.75089313  0.03263963  0.28274277     1.51530
Co1351     Co  0.73607353  0.44777340  0.22176697     1.51690
Co1352     Co  0.71072591  0.50425813  0.23117732     1.51570
Co1353     Co  0.78704885  0.99790801  0.27462483     1.51470
O1354       O  0.73795659  0.48319147  0.25520837    -1.40410
C1355       C  0.83724221  0.05773393  0.29148361     1.11140
C1356       C  0.74612696  0.50780767  0.17687843     1.11230
C1357       C  0.72056335  0.06539244  0.23750625     1.11160
C1358       C  0.81765125  0.50375954  0.21837400     1.11140
O1359       O  0.67093569  0.16786165  0.01633594    -0.78480
O1360       O  0.78208449  0.31671319  0.04257064    -0.78500
O1361       O  0.73391204  0.19905314  0.06609259    -0.78510
O1362       O  0.69405495  0.27544361  0.47468198    -0.78450
O1363       O  0.77781313  0.25642715  0.07223300    -0.78580
O1364       O  0.65826324  0.21782354  0.49238492    -0.78500
O1365       O  0.72838976  0.29632669  0.52083250    -0.78480
O1366       O  0.71075189  0.14929433  0.01762071    -0.78520
C1367       C  0.67682425  0.14158439  0.01478799     1.11210
C1368       C  0.75305381  0.31936390  0.03770298     1.11090
C1369       C  0.75079194  0.22695525  0.08305210     1.11230
C1370       C  0.66486086  0.25042385  0.48924934     1.11110
O1371       O  0.69927421  0.22671448  0.43781635    -0.78480
O1372       O  0.81633889  0.24436073  0.02014240    -0.78560
O1373       O  0.76891950  0.20720685  0.97953731    -0.78490
O1374       O  0.78032474  0.33370149  0.47413400    -0.78470
O1375       O  0.80753296  0.30076148  0.48762592    -0.78530
O1376       O  0.71291784  0.17152152  0.46136811    -0.78490
O1377       O  0.75816082  0.26615579  0.44651868    -0.78450
O1378       O  0.78584381  0.18496112  0.03603578    -0.78520
Co1379     Co  0.68821075  0.19856265  0.47865958     1.51530
Co1380     Co  0.78937593  0.27433284  0.02853985     1.51690
Co1381     Co  0.75264384  0.20346082  0.02304718     1.51570
Co1382     Co  0.74554971  0.28125930  0.48578505     1.51470
O1383       O  0.73189386  0.23513152  0.00874715    -1.40410
C1384       C  0.73226768  0.24599357  0.42792661     1.11140
C1385       C  0.81514600  0.21272460  0.02500753     1.11230
C1386       C  0.74703124  0.17984800  0.46401794     1.11160
C1387       C  0.81033805  0.33258749  0.48233356     1.11140
O1388       O  0.71305086  0.17582723  0.22080584    -0.78480
O1389       O  0.74656449  0.30820063  0.23260116    -0.78500
O1390       O  0.66775420  0.19999575  0.29592981    -0.78510
O1391       O  0.74439410  0.26266061  0.19001540    -0.78450
O1392       O  0.68717477  0.25481611  0.27110220    -0.78580
O1393       O  0.76868383  0.22670761  0.18676489    -0.78500
O1394       O  0.79617790  0.33781563  0.20355764    -0.78480
O1395       O  0.68875669  0.20899312  0.23534690    -0.78520
C1396       C  0.68569073  0.18175256  0.22143047     1.11210
C1397       C  0.77372873  0.33909290  0.22250336     1.11090
C1398       C  0.66206714  0.22631750  0.28664206     1.11230
C1399       C  0.75029126  0.24097904  0.17442116     1.11110
O1400       O  0.82232882  0.24179413  0.23540415    -0.78480
O1401       O  0.74209774  0.27346592  0.32081189    -0.78560
O1402       O  0.70614371  0.16467916  0.27843130    -0.78490
O1403       O  0.82725160  0.31685322  0.25161504    -0.78470
O1404       O  0.79698265  0.32561260  0.28703352    -0.78530
O1405       O  0.76523070  0.18458383  0.27109547    -0.78490
O1406       O  0.82362608  0.28544590  0.20276790    -0.78450
O1407       O  0.73867843  0.22023850  0.31817207    -0.78520
Co1408     Co  0.76752005  0.20986023  0.23084370     1.51530
Co1409     Co  0.74482974  0.28658460  0.27556378     1.51690
Co1410     Co  0.71453348  0.21681607  0.27650957     1.51570
Co1411     Co  0.78345343  0.28971711  0.22365086     1.51470
O1412       O  0.76207914  0.24854715  0.25585658    -1.40410
C1413       C  0.83890611  0.26756075  0.21496485     1.11140
C1414       C  0.74244248  0.24618910  0.33431889     1.11230
C1415       C  0.73253444  0.15768058  0.27558614     1.11160
C1416       C  0.82744448  0.33284327  0.27536427     1.11140
C1417       C  0.73986861  0.24503116  0.39559739    -0.11620
C1418       C  0.74339261  0.24420288  0.36790092    -0.13170
C1419       C  0.74069209  0.22713737  0.11484037    -0.11620
C1420       C  0.74023970  0.23390767  0.14187375    -0.13170
C1421       C  0.78162122  0.37270631  0.23693747    -0.11620
C1422       C  0.78141289  0.39692565  0.25107860    -0.13170
C1423       C  0.71836033  0.09509894  0.25107638    -0.11620
C1424       C  0.72315392  0.12175413  0.26491912    -0.13170
C1425       C  0.74147282  0.46835190  0.39121136    -0.11620
C1426       C  0.74682481  0.97031289  0.36387585    -0.13170
C1427       C  0.75606567  0.02793515  0.11790894    -0.11620
C1428       C  0.75334942  0.52207389  0.14554784    -0.13170
C1429       C  0.75063809  0.35199123  0.04373670    -0.11620
C1430       C  0.74585974  0.37823842  0.03748402    -0.13170
C1431       C  0.75636512  0.15114899  0.46121244    -0.11620
C1432       C  0.75931512  0.12413792  0.46814354    -0.13170
C1433       C  0.90031783  0.12159002  0.29123474    -0.11620
C1434       C  0.87313039  0.09098268  0.29421532    -0.13170
C1435       C  0.62543015  0.40057679  0.20020704    -0.11620
C1436       C  0.59737346  0.37062129  0.19938003    -0.13170
C1437       C  0.87366206  0.27381465  0.20398580    -0.11620
C1438       C  0.90008359  0.26992103  0.19997016    -0.13170
C1439       C  0.62679624  0.22395310  0.29138967    -0.11620
C1440       C  0.59917905  0.22665623  0.29341015    -0.13170
C1441       C  0.99071571  0.25846181  0.38825193    -0.11620
C1442       C  0.49592558  0.25928986  0.36068758    -0.13170
C1443       C  0.00305146  0.24897502  0.14088339    -0.11620
C1444       C  0.50744203  0.25740792  0.11352056    -0.13170
C1445       C  0.90783274  0.12605338  0.03766924    -0.11620
C1446       C  0.87565486  0.09989812  0.03712932    -0.13170
C1447       C  0.59928693  0.37182680  0.46679860    -0.11620
C1448       C  0.62853764  0.40007821  0.47332362    -0.13170
C1449       C  0.86943131  0.21150454  0.49515632    -0.11620
C1450       C  0.84361872  0.20781904  0.01062162    -0.13170
C1451       C  0.64132575  0.25711665  0.50857260    -0.11620
C1452       C  0.61715497  0.25066330  0.02714883    -0.13170
C1453       C  0.89098226  0.39293323  0.28242860    -0.11620
C1454       C  0.86245633  0.36346827  0.28557197    -0.13170
C1455       C  0.62284814  0.12103472  0.21888966    -0.11620
C1456       C  0.64942033  0.15149209  0.21534162    -0.13170
C1457       C  0.88278310  0.50793374  0.22292468    -0.11620
C1458       C  0.85524213  0.51042588  0.21624644    -0.13170
C1459       C  0.63139546  0.98784223  0.29102744    -0.11620
C1460       C  0.60262721  0.98898606  0.28677168    -0.13170
C1461       C  0.50909814  0.37263535  0.25185783    -0.11620
C1462       C  0.51018672  0.40087644  0.24203649    -0.13170
C1463       C  0.01164055  0.14936975  0.22866313    -0.11620
C1464       C  0.01496543  0.12247501  0.23509413    -0.13170
C1465       C  0.01520087  0.53846465  0.35507945    -0.11620
C1466       C  0.01326221  0.03235836  0.38273175    -0.13170
C1467       C  0.47518839  0.99002844  0.10632377    -0.11620
C1468       C  0.47310909  0.98483447  0.13411993    -0.13170
C1469       C  0.84541456  0.36460838  0.49143792    -0.11620
C1470       C  0.87666855  0.38795786  0.99999824    -0.13170
C1471       C  0.61994180  0.09103790  0.48333355    -0.11620
C1472       C  0.64869386  0.11032744  0.99791187    -0.13170
C1473       C  0.85341257  0.49256636  0.46939916    -0.11620
C1474       C  0.88439743  0.50105275  0.46080343    -0.13170
C1475       C  0.61985903  0.01420331  0.04429605    -0.11620
C1476       C  0.64753365  0.01308283  0.03623279    -0.13170
C1477       C  0.50641375  0.37306918  0.00294688    -0.11540
C1478       C  0.00174363  0.39582465  0.48738610    -0.13170
C1479       C  0.03249400  0.15846013  0.49687255    -0.11620
C1480       C  0.53696857  0.13357630  0.00955698    -0.13170
O1481       O  0.55549915  0.08751786  0.52498556    -0.78480
O1482       O  0.91813435  0.44558748  0.48249464    -0.78500
O1483       O  0.94625678  0.03564063  0.97726434    -0.78510
O1484       O  0.47909498  0.46462665  0.56144221    -0.78450
O1485       O  0.93500935  0.49726041  0.94080465    -0.78580
O1486       O  0.50945071  0.02524569  0.56258138    -0.78500
O1487       O  0.94264878  0.42012464  0.51403507    -0.78480
O1488       O  0.99874964  0.07006414  0.01628409    -0.78520
C1489       C  0.53039960  0.09669698  0.52087422     1.11210
C1490       C  0.91405006  0.41974566  0.50048609     1.11090
C1491       C  0.92352256  0.01243178  0.95871199     1.11230
C1492       C  0.48744707  0.49380682  0.57503235     1.11110
O1493       O  0.58310251  0.04347435  0.54972321    -0.78480
O1494       O  0.00398362  0.49577102  0.92830451    -0.78560
O1495       O  0.55855859  0.08057022  0.97072575    -0.78490
O1496       O  0.52094418  0.45789073  0.48452465    -0.78470
O1497       O  0.97003639  0.42485417  0.96149184    -0.78530
O1498       O  0.56668160  0.03511233  0.98786948    -0.78490
O1499       O  0.55443697  0.48583099  0.53499067    -0.78450
O1500       O  0.99998374  0.04648317  0.92980456    -0.78520
Co1501     Co  0.53815834  0.03049966  0.52450152     1.51530
Co1502     Co  0.96168580  0.46997235  0.95701933     1.51690
Co1503     Co  0.00035483  0.05469105  0.97501815     1.51570
Co1504     Co  0.49824333  0.46160434  0.52144472     1.51470
O1505       O  0.49209882  0.00429706  0.49570797    -1.40410
C1506       C  0.58425835  0.51424058  0.54514360     1.11140
C1507       C  0.00715858  0.02515266  0.91534692     1.11230
C1508       C  0.58041845  0.06719673  0.97662388     1.11160
C1509       C  0.99932413  0.42741210  0.97412324     1.11140
O1510       O  0.51726592  0.01044766  0.67286010    -0.78480
O1511       O  0.98118493  0.05841965  0.74030090    -0.78500
O1512       O  0.93209010  0.49465063  0.71749103    -0.78510
O1513       O  0.59069563  0.07198881  0.75479631    -0.78450
O1514       O  0.91900380  0.50316861  0.76489107    -0.78580
O1515       O  0.57522501  0.06351578  0.70479946    -0.78500
O1516       O  0.53693369  0.08542876  0.76104298    -0.78480
O1517       O  0.96374677  0.46022638  0.68597485    -0.78520
C1518       C  0.48450157  0.98511708  0.66603619     1.11210
C1519       C  0.01126613  0.08742482  0.74566247     1.11090
C1520       C  0.91164274  0.50088152  0.73568188     1.11230
C1521       C  0.59501267  0.08390769  0.72658516     1.11110
O1522       O  0.58261129  0.00795118  0.74204171    -0.78480
O1523       O  0.94414387  0.45471441  0.77852801    -0.78560
O1524       O  0.98632473  0.43964531  0.74712930    -0.78490
O1525       O  0.55256673  0.05669870  0.81201965    -0.78470
O1526       O  0.98914749  0.52631489  0.80396983    -0.78530
O1527       O  0.52457790  0.45335722  0.70885342    -0.78490
O1528       O  0.55036101  0.99860768  0.78464891    -0.78450
O1529       O  0.91522400  0.42505128  0.73597960    -0.78520
Co1530     Co  0.54792026  0.00908687  0.70819194     1.51530
Co1531     Co  0.96736369  0.50848161  0.75855758     1.51690
Co1532     Co  0.96268361  0.46882920  0.73147295     1.51570
Co1533     Co  0.53954930  0.03915821  0.77228320     1.51470
O1534       O  0.51229044  0.01356740  0.73626111    -1.40410
C1535       C  0.57644109  0.99778281  0.77054699     1.11140
C1536       C  0.91754474  0.42547708  0.76535188     1.11230
C1537       C  0.50716546  0.43274276  0.73198477     1.11160
C1538       C  0.01925455  0.54186980  0.82213045     1.11140
O1539       O  0.93077145  0.18071841  0.51021046    -0.78480
O1540       O  0.54191617  0.34501069  0.52026616    -0.78500
O1541       O  0.49773697  0.23136941  0.56601278    -0.78510
O1542       O  0.92973205  0.25954347  0.99281183    -0.78450
O1543       O  0.53367184  0.29137899  0.56665408    -0.78580
O1544       O  0.91773514  0.21463041  0.96319988    -0.78500
O1545       O  0.98324130  0.31150749  0.01839808    -0.78480
O1546       O  0.97430356  0.17281011  0.53447654    -0.78520
C1547       C  0.93941895  0.16174302  0.52835961     1.11210
C1548       C  0.51049568  0.34325249  0.51828720     1.11090
C1549       C  0.51249083  0.26068954  0.58054028     1.11230
C1550       C  0.90673113  0.22896232  0.98245764     1.11110
O1551       O  0.98962811  0.22989335  0.93640943    -0.78480
O1552       O  0.57882308  0.27431959  0.52766168    -0.78560
O1553       O  0.03870877  0.21846171  0.49012825    -0.78490
O1554       O  0.53278477  0.33252987  0.96340455    -0.78470
O1555       O  0.56746547  0.30919429  0.97978746    -0.78530
O1556       O  0.98593789  0.17321629  0.97796305    -0.78490
O1557       O  0.97270084  0.27271827  0.93455181    -0.78450
O1558       O  0.55548906  0.21819610  0.54970885    -0.78520
Co1559     Co  0.96109176  0.20570323  0.97416705     1.51530
Co1560     Co  0.54807400  0.29885225  0.52163500     1.51690
Co1561     Co  0.51809484  0.22732175  0.52750715     1.51570
Co1562     Co  0.98052860  0.29090472  0.97852828     1.51470
O1563       O  0.99561011  0.25367649  0.50138808    -1.40410
C1564       C  0.98473371  0.25403766  0.92136387     1.11140
C1565       C  0.58334223  0.24785630  0.53838533     1.11230
C1566       C  0.02001927  0.18471272  0.98482497     1.11160
C1567       C  0.56520961  0.33546660  0.96667763     1.11140
O1568       O  0.91882109  0.17845089  0.76542541    -0.78480
O1569       O  0.53411521  0.33503614  0.76953093    -0.78500
O1570       O  0.48484309  0.22713862  0.81498591    -0.78510
O1571       O  0.95826478  0.27439642  0.69357195    -0.78450
O1572       O  0.52930392  0.28460806  0.81440916    -0.78580
O1573       O  0.91696682  0.22959687  0.72394146    -0.78500
O1574       O  0.98388087  0.31086986  0.74149533    -0.78480
O1575       O  0.96323764  0.16749095  0.78317454    -0.78520
C1576       C  0.92873610  0.15789076  0.78065524     1.11210
C1577       C  0.50764743  0.33757112  0.75635162     1.11090
C1578       C  0.50318004  0.25712836  0.82856398     1.11230
C1579       C  0.92593435  0.25699391  0.70524555     1.11110
O1580       O  0.96237043  0.21855236  0.68213551    -0.78480
O1581       O  0.57002339  0.26054632  0.77539925    -0.78560
O1582       O  0.02402365  0.20850448  0.73993652    -0.78490
O1583       O  0.53323296  0.32857105  0.69539393    -0.78470
O1584       O  0.56797555  0.31232027  0.72653917    -0.78530
O1585       O  0.96712759  0.16888157  0.72471053    -0.78490
O1586       O  0.02050811  0.25838036  0.69316963    -0.78450
O1587       O  0.53654231  0.20697841  0.80222271    -0.78520
Co1588     Co  0.94433377  0.20207988  0.72597544     1.51530
Co1589     Co  0.54279511  0.29155075  0.76924634     1.51690
Co1590     Co  0.50564352  0.22009077  0.77734634     1.51570
Co1591     Co  0.00384710  0.28476975  0.71947834     1.51470
O1592       O  0.98628129  0.24645312  0.75161676    -1.40410
C1593       C  0.99571042  0.23976359  0.67337711     1.11140
C1594       C  0.56758126  0.23222883  0.79162588     1.11230
C1595       C  0.00132494  0.17771444  0.72874493     1.11160
C1596       C  0.56503129  0.33566390  0.70685811     1.11140
O1597       O  0.70281750  0.00798215  0.53829569    -0.78480
O1598       O  0.73939740  0.40970156  0.49273538    -0.78500
O1599       O  0.67480078  0.46162082  0.96176658    -0.78510
O1600       O  0.75216740  0.99898880  0.57146400    -0.78450
O1601       O  0.68770162  0.43263235  0.00012997    -0.78580
O1602       O  0.76540155  0.05842354  0.56906595    -0.78500
O1603       O  0.74269971  0.43418360  0.53802419    -0.78480
O1604       O  0.68594860  0.52271783  0.49339985    -0.78520
C1605       C  0.67970905  0.01374321  0.52203456     1.11210
C1606       C  0.74263712  0.40849540  0.52219006     1.11090
C1607       C  0.66468572  0.43322555  0.97969482     1.11230
C1608       C  0.75875827  0.02905362  0.58490139     1.11110
O1609       O  0.81192907  0.07497522  0.51934001    -0.78480
O1610       O  0.72519574  0.44768244  0.94252080    -0.78560
O1611       O  0.75597234  0.06762544  0.96041259    -0.78490
O1612       O  0.81701272  0.98426026  0.01254964    -0.78470
O1613       O  0.79062498  0.47774641  0.96746525    -0.78530
O1614       O  0.75028543  0.07974421  0.00817478    -0.78490
O1615       O  0.82647912  0.03892774  0.54620114    -0.78450
O1616       O  0.74442695  0.50642507  0.93008559    -0.78520
Co1617     Co  0.75782089  0.03909400  0.52881731     1.51530
Co1618     Co  0.74129660  0.45654705  0.98700315     1.51690
Co1619     Co  0.71817588  0.51423305  0.96392903     1.51570
Co1620     Co  0.78017545  0.99075171  0.53674939     1.51470
O1621       O  0.75388363  0.50701666  0.49606493    -1.40410
C1622       C  0.83656824  0.07026370  0.53383249     1.11140
C1623       C  0.73667189  0.47424542  0.92256755     1.11230
C1624       C  0.75622760  0.08958171  0.97960004     1.11160
C1625       C  0.81899052  0.48452031  0.98362227     1.11140
O1626       O  0.69769521  0.01800703  0.79368936    -0.78480
O1627       O  0.73943351  0.41752450  0.75680169    -0.78500
O1628       O  0.67262181  0.46400405  0.70340180    -0.78510
O1629       O  0.76419624  0.96897861  0.81313866    -0.78450
O1630       O  0.68161191  0.42017352  0.72608930    -0.78580
O1631       O  0.75191593  0.01183873  0.82461009    -0.78500
O1632       O  0.79794300  0.45608421  0.76835661    -0.78480
O1633       O  0.66837386  0.47717580  0.75916879    -0.78520
C1634       C  0.66724057  0.99303521  0.78236827     1.11210
C1635       C  0.77231973  0.42348182  0.76196106     1.11090
C1636       C  0.66130745  0.42976878  0.70997916     1.11230
C1637       C  0.75420516  0.98359320  0.83244217     1.11110
O1638       O  0.80907945  0.06120449  0.78084884    -0.78480
O1639       O  0.73299778  0.47337629  0.68206608    -0.78560
O1640       O  0.69386214  0.04025932  0.72141044    -0.78490
O1641       O  0.81157669  0.02390323  0.73527687    -0.78470
O1642       O  0.79113176  0.47155469  0.71239643    -0.78530
O1643       O  0.74904533  0.06159842  0.74483931    -0.78490
O1644       O  0.83422725  0.02585802  0.79586812    -0.78450
O1645       O  0.74946067  0.52828802  0.69861186    -0.78520
Co1646     Co  0.75089313  0.03263974  0.78274276     1.51530
Co1647     Co  0.73607359  0.44777336  0.72176711     1.51690
Co1648     Co  0.71072607  0.50425822  0.73117727     1.51570
Co1649     Co  0.78704853  0.99790784  0.77462488     1.51470
O1650       O  0.73795671  0.48319155  0.75520842    -1.40410
C1651       C  0.83724207  0.05773360  0.79148347     1.11140
C1652       C  0.74612712  0.50780756  0.67687843     1.11230
C1653       C  0.72056347  0.06539269  0.73750636     1.11160
C1654       C  0.81765139  0.50375937  0.71837417     1.11140
O1655       O  0.67093755  0.16786096  0.51633823    -0.78480
O1656       O  0.78208522  0.31671320  0.54256960    -0.78500
O1657       O  0.73391336  0.19905271  0.56609332    -0.78510
O1658       O  0.69405683  0.27544569  0.97468008    -0.78450
O1659       O  0.77781324  0.25642743  0.57223317    -0.78580
O1660       O  0.65826356  0.21782584  0.99238255    -0.78500
O1661       O  0.72839015  0.29632844  0.02083167    -0.78480
O1662       O  0.71075322  0.14929333  0.51762150    -0.78520
C1663       C  0.67682562  0.14158354  0.51478944     1.11210
C1664       C  0.75305401  0.31936315  0.53770276     1.11090
C1665       C  0.75079260  0.22695523  0.58305250     1.11230
C1666       C  0.66486221  0.25042649  0.98924711     1.11110
O1667       O  0.69927646  0.22671716  0.93781522    -0.78480
O1668       O  0.81633944  0.24436017  0.52014335    -0.78560
O1669       O  0.76892033  0.20720605  0.47953793    -0.78490
O1670       O  0.78032397  0.33370275  0.97413303    -0.78470
O1671       O  0.80753304  0.30076372  0.98762637    -0.78530
O1672       O  0.71291740  0.17152234  0.96136705    -0.78490
O1673       O  0.75816304  0.26615717  0.94651910    -0.78450
O1674       O  0.78584485  0.18496052  0.53603652    -0.78520
Co1675     Co  0.68821088  0.19856433  0.97865795     1.51530
Co1676     Co  0.78937629  0.27433219  0.52853986     1.51690
Co1677     Co  0.75264480  0.20346009  0.52304783     1.51570
Co1678     Co  0.74555082  0.28126083  0.98578489     1.51470
O1679       O  0.73189436  0.23513051  0.50874768    -1.40410
C1680       C  0.73227042  0.24599561  0.92792642     1.11140
C1681       C  0.81514691  0.21272425  0.52500845     1.11230
C1682       C  0.74703067  0.17984856  0.96401747     1.11160
C1683       C  0.81033725  0.33258940  0.98233389     1.11140
O1684       O  0.71305078  0.17582717  0.72080670    -0.78480
O1685       O  0.74656450  0.30820050  0.73260152    -0.78500
O1686       O  0.66775547  0.19999645  0.79593149    -0.78510
O1687       O  0.74439392  0.26266036  0.69001572    -0.78450
O1688       O  0.68717540  0.25481635  0.77110324    -0.78580
O1689       O  0.76868347  0.22670718  0.68676525    -0.78500
O1690       O  0.79617765  0.33781547  0.70355772    -0.78480
O1691       O  0.68875659  0.20899290  0.73534822    -0.78520
C1692       C  0.68569064  0.18175247  0.72143156     1.11210
C1693       C  0.77372857  0.33909275  0.72250354     1.11090
C1694       C  0.66206800  0.22631786  0.78664336     1.11230
C1695       C  0.75029105  0.24097875  0.67442150     1.11110
O1696       O  0.82232893  0.24179403  0.73540408    -0.78480
O1697       O  0.74209928  0.27346658  0.82081227    -0.78560
O1698       O  0.70614438  0.16467941  0.77843233    -0.78490
O1699       O  0.82725193  0.31685329  0.75161486    -0.78470
O1700       O  0.79698333  0.32561292  0.78703347    -0.78530
O1701       O  0.76523122  0.18458406  0.77109593    -0.78490
O1702       O  0.82362594  0.28544570  0.70276779    -0.78450
O1703       O  0.73868046  0.22023937  0.81817252    -0.78520
Co1704     Co  0.76752011  0.20986013  0.73084409     1.51530
Co1705     Co  0.74483039  0.28658484  0.77556417     1.51690
Co1706     Co  0.71453435  0.21681640  0.77651051     1.51570
Co1707     Co  0.78345349  0.28971705  0.72365097     1.51470
O1708       O  0.76207955  0.24854728  0.75585683    -1.40410
C1709       C  0.83890605  0.26756058  0.71496468     1.11140
C1710       C  0.74244488  0.24619017  0.83431922     1.11230
C1711       C  0.73253503  0.15768079  0.77558681     1.11160
C1712       C  0.82744503  0.33284339  0.77536413     1.11140
C1713       C  0.73987236  0.24503320  0.89559756    -0.11620
C1714       C  0.74339617  0.24420455  0.86790117    -0.13170
C1715       C  0.74069256  0.22713744  0.61484069    -0.11620
C1716       C  0.74023980  0.23390763  0.64187404    -0.13170
C1717       C  0.78162106  0.37270620  0.73693760    -0.11620
C1718       C  0.78141274  0.39692554  0.75107875    -0.13170
C1719       C  0.71836061  0.09509921  0.75107669    -0.11620
C1720       C  0.72315435  0.12175436  0.76491959    -0.13170
C1721       C  0.74147278  0.46835205  0.89121149    -0.11620
C1722       C  0.74682481  0.97031330  0.86387602    -0.13170
C1723       C  0.75606449  0.02793472  0.61790865    -0.11620
C1724       C  0.75334964  0.52207364  0.64554779    -0.13170
C1725       C  0.75063812  0.35199055  0.54373593    -0.11620
C1726       C  0.74585963  0.37823767  0.53748332    -0.13170
C1727       C  0.75636449  0.15114930  0.96121285    -0.11620
C1728       C  0.75931493  0.12413848  0.96814417    -0.13170
C1729       C  0.90031790  0.12158933  0.79123363    -0.11620
C1730       C  0.87313040  0.09098216  0.79421474    -0.13170
C1731       C  0.62543023  0.40057688  0.70020713    -0.11620
C1732       C  0.59737354  0.37062137  0.69938021    -0.13170
C1733       C  0.87366196  0.27381450  0.70398550    -0.11620
C1734       C  0.90008352  0.26992094  0.69996981    -0.13170
C1735       C  0.62679681  0.22395305  0.79139054    -0.11620
C1736       C  0.59917935  0.22665592  0.79341028    -0.13170
C1737       C  0.99071482  0.25845851  0.88825173    -0.11620
C1738       C  0.49592515  0.25928797  0.86068746    -0.13170
C1739       C  0.00305252  0.24897691  0.64088303    -0.11620
C1740       C  0.50744211  0.25740909  0.61352046    -0.13170
C1741       C  0.90783106  0.12605416  0.53766855    -0.11620
C1742       C  0.87565339  0.09989856  0.53712894    -0.13170
C1743       C  0.59928614  0.37182710  0.96679880    -0.11620
C1744       C  0.62853700  0.40007845  0.97332378    -0.13170
C1745       C  0.86942989  0.21150317  0.99515562    -0.11620
C1746       C  0.84361996  0.20781931  0.51062260    -0.13170
C1747       C  0.64132790  0.25712021  0.00857050    -0.11620
C1748       C  0.61715273  0.25066006  0.52715076    -0.13170
C1749       C  0.89098286  0.39293316  0.78242861    -0.11620
C1750       C  0.86245695  0.36346820  0.78557186    -0.13170
C1751       C  0.62284802  0.12103472  0.71888992    -0.11620
C1752       C  0.64942024  0.15149216  0.71534233    -0.13170
C1753       C  0.88278326  0.50793349  0.72292474    -0.11620
C1754       C  0.85524225  0.51042563  0.71624658    -0.13170
C1755       C  0.63139548  0.98784241  0.79102766    -0.11620
C1756       C  0.60262717  0.98898612  0.78677193    -0.13170
C1757       C  0.50909816  0.37263503  0.75185823    -0.11620
C1758       C  0.51018686  0.40087617  0.74203681    -0.13170
C1759       C  0.01164082  0.14936973  0.72866183    -0.11620
C1760       C  0.01496554  0.12247497  0.73509325    -0.13170
C1761       C  0.01520124  0.53846437  0.85507932    -0.11620
C1762       C  0.01326201  0.03235774  0.88273148    -0.13170
C1763       C  0.47518822  0.99002834  0.60632390    -0.11620
C1764       C  0.47310898  0.98483426  0.63412005    -0.13170
C1765       C  0.84541273  0.36461073  0.99143880    -0.11620
C1766       C  0.87667076  0.38795517  0.49999726    -0.13170
C1767       C  0.61994100  0.09103712  0.98333285    -0.11620
C1768       C  0.64869489  0.11032738  0.49791268    -0.13170
C1769       C  0.85341253  0.49256775  0.96939881    -0.11620
C1770       C  0.88439737  0.50105454  0.96080272    -0.13170
C1771       C  0.61985932  0.01420418  0.54429630    -0.11620
C1772       C  0.64753342  0.01308309  0.53623255    -0.13170
C1773       C  0.50641707  0.37307089  0.50294720    -0.11540
C1774       C  0.00173911  0.39582260  0.98738598    -0.13170
C1775       C  0.03249509  0.15845989  0.99687176    -0.11620
C1776       C  0.53696780  0.13357655  0.50955772    -0.13170
O1777       O  0.55550549  0.58752298  0.02498036    -0.78480
O1778       O  0.91812950  0.94558253  0.98249811    -0.78500
O1779       O  0.94626585  0.53564711  0.47725821    -0.78510
O1780       O  0.47908239  0.96462040  0.06144519    -0.78450
O1781       O  0.93500087  0.99725368  0.44081044    -0.78580
O1782       O  0.50946404  0.52525177  0.06257731    -0.78500
O1783       O  0.94264330  0.92011742  0.01403623    -0.78480
O1784       O  0.99875615  0.57006945  0.51627808    -0.78520
C1785       C  0.53040584  0.59670233  0.02086825     1.11210
C1786       C  0.91404486  0.91973847  0.00048668     1.11090
C1787       C  0.92353079  0.51243591  0.45870803     1.11230
C1788       C  0.48742978  0.99380022  0.07503406     1.11110
O1789       O  0.58311191  0.54347647  0.04971432    -0.78480
O1790       O  0.00397839  0.99577212  0.42830619    -0.78560
O1791       O  0.55856869  0.58057790  0.47072237    -0.78490
O1792       O  0.52094114  0.95788878  0.98453085    -0.78470
O1793       O  0.97004010  0.92485493  0.46149388    -0.78530
O1794       O  0.56668802  0.53511741  0.48786215    -0.78490
O1795       O  0.55442978  0.98582726  0.03499810    -0.78450
O1796       O  0.99999498  0.54648635  0.42979939    -0.78520
Co1797     Co  0.53816646  0.53050426  0.02449522     1.51530
Co1798     Co  0.96168232  0.96996908  0.45702247     1.51690
Co1799     Co  0.00036382  0.55469652  0.47501267     1.51570
Co1800     Co  0.49823624  0.96159966  0.02144944     1.51470
O1801       O  0.49210461  0.50430190  0.99570392    -1.40410
C1802       C  0.58425007  0.01423776  0.04515157     1.11140
C1803       C  0.00717046  0.52515433  0.41534444     1.11230
C1804       C  0.58042796  0.56720393  0.47662126     1.11160
C1805       C  0.99932720  0.92741339  0.47412760     1.11140
O1806       O  0.51731603  0.51044845  0.17285851    -0.78480
O1807       O  0.98122855  0.55842242  0.24029719    -0.78500
O1808       O  0.93204119  0.99464635  0.21750101    -0.78510
O1809       O  0.59073652  0.57199876  0.25479522    -0.78450
O1810       O  0.91896248  0.00316831  0.26490228    -0.78580
O1811       O  0.57526749  0.56351829  0.20479788    -0.78500
O1812       O  0.53697122  0.58543167  0.26104952    -0.78480
O1813       O  0.96369498  0.96022552  0.18597653    -0.78520
C1814       C  0.48455078  0.48511970  0.16603527     1.11210
C1815       C  0.01130490  0.58742893  0.24566775     1.11090
C1816       C  0.91159668  0.00087871  0.23569387     1.11230
C1817       C  0.59505054  0.58391419  0.22658284     1.11110
O1818       O  0.58266478  0.50796345  0.24204283    -0.78480
O1819       O  0.94411127  0.95471889  0.27853644    -0.78560
O1820       O  0.98627938  0.93963899  0.24712827    -0.78490
O1821       O  0.55260347  0.55669831  0.31202247    -0.78470
O1822       O  0.98911011  0.02631710  0.30397429    -0.78530
O1823       O  0.52452451  0.95335216  0.20884671    -0.78490
O1824       O  0.55041199  0.49861535  0.28464880    -0.78450
O1825       O  0.91517805  0.92504835  0.23599323    -0.78520
Co1826     Co  0.54796963  0.50909156  0.20819295     1.51530
Co1827     Co  0.96732211  0.00848159  0.25856356     1.51690
Co1828     Co  0.96263689  0.96882525  0.23147767     1.51570
Co1829     Co  0.53959235  0.53916168  0.27228443     1.51470
O1830       O  0.51233674  0.51357113  0.23626045    -1.40410
C1831       C  0.57649530  0.49779506  0.27054801     1.11140
C1832       C  0.91750994  0.92547923  0.26536569     1.11230
C1833       C  0.50711543  0.93273535  0.23197807     1.11160
C1834       C  0.01921979  0.04187136  0.32213185     1.11140
O1835       O  0.93077041  0.68071485  0.01019953    -0.78480
O1836       O  0.54191466  0.84501040  0.02027247    -0.78500
O1837       O  0.49773032  0.73136495  0.06600931    -0.78510
O1838       O  0.92973350  0.75954782  0.49281252    -0.78450
O1839       O  0.53367005  0.79137326  0.06665686    -0.78580
O1840       O  0.91773941  0.71464025  0.46319479    -0.78500
O1841       O  0.98324271  0.81150863  0.51840250    -0.78480
O1842       O  0.97430303  0.67281021  0.03446970    -0.78520
C1843       C  0.93941853  0.66174152  0.02835093     1.11210
C1844       C  0.51049392  0.84325160  0.01829264     1.11090
C1845       C  0.51248654  0.76068248  0.08054036     1.11230
C1846       C  0.90673405  0.72896787  0.48245571     1.11110
O1847       O  0.98963583  0.72990930  0.43640413    -0.78480
O1848       O  0.57882310  0.77432024  0.02766102    -0.78560
O1849       O  0.03871141  0.71846714  0.99012600    -0.78490
O1850       O  0.53278528  0.83253618  0.46340867    -0.78470
O1851       O  0.56746598  0.80919932  0.47978883    -0.78530
O1852       O  0.98594265  0.67322361  0.47795384    -0.78490
O1853       O  0.97270320  0.77273019  0.43455177    -0.78450
O1854       O  0.55548615  0.71819592  0.04970737    -0.78520
Co1855     Co  0.96109468  0.70570956  0.47415891     1.51530
Co1856     Co  0.54807304  0.79885228  0.02163720     1.51690
Co1857     Co  0.51809326  0.72732243  0.02750455     1.51570
Co1858     Co  0.98052956  0.79091056  0.47853037     1.51470
O1859       O  0.99561004  0.75367843  0.00138603    -1.40410
C1860       C  0.98474166  0.75405575  0.42136144     1.11140
C1861       C  0.58334040  0.74785575  0.03838457     1.11230
C1862       C  0.02002276  0.68471912  0.48482073     1.11160
C1863       C  0.56520976  0.83547242  0.46668083     1.11140
O1864       O  0.91883822  0.67844812  0.26543653    -0.78480
O1865       O  0.53409847  0.83504489  0.26951242    -0.78500
O1866       O  0.48485577  0.72716712  0.31498571    -0.78510
O1867       O  0.95825196  0.77436809  0.19356117    -0.78450
O1868       O  0.52931528  0.78463632  0.31440158    -0.78580
O1869       O  0.91696277  0.72957492  0.22393947    -0.78500
O1870       O  0.98386584  0.81086442  0.24147425    -0.78480
O1871       O  0.96326765  0.66751071  0.28319202    -0.78520
C1872       C  0.92876382  0.65789913  0.28067146     1.11210
C1873       C  0.50762607  0.83757013  0.25633028     1.11090
C1874       C  0.50319332  0.75715889  0.32856045     1.11230
C1875       C  0.92592512  0.75696873  0.20524050     1.11110
O1876       O  0.96237427  0.71853116  0.18213889    -0.78480
O1877       O  0.57003756  0.76057448  0.27539342    -0.78560
O1878       O  0.02404269  0.70851283  0.23994862    -0.78490
O1879       O  0.53320903  0.82855628  0.19537060    -0.78470
O1880       O  0.56796793  0.81233309  0.22652350    -0.78530
O1881       O  0.96714838  0.66887886  0.22472679    -0.78490
O1882       O  0.02050881  0.75837238  0.19316867    -0.78450
O1883       O  0.53656734  0.70701949  0.30223675    -0.78520
Co1884     Co  0.94434279  0.70206879  0.22598177     1.51530
Co1885     Co  0.54279711  0.79156939  0.26923566     1.51690
Co1886     Co  0.50566051  0.72011230  0.27735213     1.51570
Co1887     Co  0.00383969  0.78476339  0.21946722     1.51470
O1888       O  0.98628615  0.74645681  0.25161377    -1.40410
C1889       C  0.99571237  0.73974796  0.17337808     1.11140
C1890       C  0.56760196  0.73226460  0.29162940     1.11230
C1891       C  0.00134718  0.67771732  0.22876306     1.11160
C1892       C  0.56501108  0.83566414  0.20683559     1.11140
O1893       O  0.70281764  0.50797070  0.03829537    -0.78480
O1894       O  0.73939348  0.90971097  0.99272924    -0.78500
O1895       O  0.67479121  0.96162980  0.46177248    -0.78510
O1896       O  0.75217039  0.49898106  0.07146695    -0.78450
O1897       O  0.68769958  0.93264134  0.50013137    -0.78580
O1898       O  0.76539864  0.55841326  0.06907025    -0.78500
O1899       O  0.74269706  0.93418904  0.03802034    -0.78480
O1900       O  0.68594540  0.02273141  0.99340357    -0.78520
C1901       C  0.67971060  0.51373133  0.02203144     1.11210
C1902       C  0.74263454  0.90850235  0.02218369     1.11090
C1903       C  0.66468058  0.93323411  0.47969935     1.11230
C1904       C  0.75876126  0.52904485  0.08490558     1.11110
O1905       O  0.81192830  0.57496927  0.01934439    -0.78480
O1906       O  0.72518274  0.94768909  0.44251869    -0.78560
O1907       O  0.75597888  0.56761762  0.46041495    -0.78490
O1908       O  0.81701968  0.48425365  0.51255635    -0.78470
O1909       O  0.79061859  0.97775589  0.46745818    -0.78530
O1910       O  0.75028282  0.57973226  0.50817630    -0.78490
O1911       O  0.82648381  0.53892408  0.04620300    -0.78450
O1912       O  0.74441154  0.00643111  0.43008391    -0.78520
Co1913     Co  0.75782088  0.53908485  0.02882028     1.51530
Co1914     Co  0.74129205  0.95655582  0.48699920     1.51690
Co1915     Co  0.71816712  0.01424158  0.46393016     1.51570
Co1916     Co  0.78018103  0.49074592  0.03675371     1.51470
O1917       O  0.75387877  0.00702562  0.99606226    -1.40410
C1918       C  0.83656975  0.57025966  0.03383467     1.11140
C1919       C  0.73665109  0.97425061  0.42256456     1.11230
C1920       C  0.75622822  0.58957152  0.47960211     1.11160
C1921       C  0.81898347  0.98452748  0.48361555     1.11140
O1922       O  0.69774900  0.51801178  0.29370040    -0.78480
O1923       O  0.73937851  0.91752105  0.25679039    -0.78500
O1924       O  0.67257886  0.96401279  0.20338151    -0.78510
O1925       O  0.76425689  0.46897871  0.31314811    -0.78450
O1926       O  0.68156357  0.92018083  0.22607350    -0.78580
O1927       O  0.75196731  0.51183363  0.32461809    -0.78500
O1928       O  0.79788543  0.95608342  0.26835397    -0.78480
O1929       O  0.66831984  0.97718078  0.25914900    -0.78520
C1930       C  0.66729390  0.49303765  0.28238226     1.11210
C1931       C  0.77226468  0.92348040  0.26195690     1.11090
C1932       C  0.66126403  0.92977735  0.20995756     1.11230
C1933       C  0.75426114  0.48359070  0.33245074     1.11110
O1934       O  0.80913061  0.56120109  0.28085903    -0.78480
O1935       O  0.73295833  0.97338272  0.18205637    -0.78560
O1936       O  0.69390834  0.54025170  0.22142753    -0.78490
O1937       O  0.81162919  0.52390386  0.23528333    -0.78470
O1938       O  0.79108517  0.97155416  0.21239271    -0.78530
O1939       O  0.74909630  0.56160279  0.24485156    -0.78490
O1940       O  0.83428400  0.52585761  0.29587364    -0.78450
O1941       O  0.74941808  0.02829366  0.19860204    -0.78520
Co1942     Co  0.75094508  0.53263844  0.28275263     1.51530
Co1943     Co  0.73602560  0.94777603  0.22175717     1.51690
Co1944     Co  0.71067698  0.00426287  0.23116242     1.51570
Co1945     Co  0.78710474  0.49790708  0.27463225     1.51470
O1946       O  0.73790356  0.98319275  0.25519804    -1.40410
C1947       C  0.83729403  0.55773167  0.29149351     1.11140
C1948       C  0.74609127  0.00781446  0.17687003     1.11230
C1949       C  0.72061100  0.56539203  0.23751726     1.11160
C1950       C  0.81760389  0.00375842  0.21837268     1.11140
O1951       O  0.67094283  0.66786150  0.01635151    -0.78480
O1952       O  0.78208830  0.81671951  0.04255979    -0.78500
O1953       O  0.73392470  0.69906347  0.06609962    -0.78510
O1954       O  0.69404858  0.77543420  0.47468009    -0.78450
O1955       O  0.77782405  0.75644044  0.07223087    -0.78580
O1956       O  0.65826299  0.71781740  0.49239330    -0.78500
O1957       O  0.72839046  0.79632920  0.52082546    -0.78480
O1958       O  0.71075717  0.64929298  0.01763368    -0.78520
C1959       C  0.67682945  0.64158325  0.01480272     1.11210
C1960       C  0.75305673  0.81936917  0.03769255     1.11090
C1961       C  0.75080596  0.72696968  0.08305485     1.11230
C1962       C  0.66485716  0.75041615  0.48925149     1.11110
O1963       O  0.69926418  0.72669744  0.43782119    -0.78480
O1964       O  0.81634267  0.74436289  0.02014115    -0.78560
O1965       O  0.76891891  0.70719813  0.97954175    -0.78490
O1966       O  0.78032194  0.83369515  0.47412307    -0.78470
O1967       O  0.80752870  0.80075507  0.48761721    -0.78530
O1968       O  0.71291414  0.67151102  0.46137835    -0.78490
O1969       O  0.75815165  0.76614271  0.44651531    -0.78450
O1970       O  0.78585218  0.68496572  0.03604203    -0.78520
Co1971     Co  0.68820881  0.69855468  0.47866859     1.51530
Co1972     Co  0.78938010  0.77433621  0.02853521     1.51690
Co1973     Co  0.75264931  0.70346171  0.02305253     1.51570
Co1974     Co  0.74554598  0.78125405  0.48577993     1.51470
O1975       O  0.73189651  0.73512993  0.00874950    -1.40410
C1976       C  0.73225572  0.74597589  0.42792722     1.11140
C1977       C  0.81515199  0.71272815  0.02500940     1.11230
C1978       C  0.74702773  0.67983767  0.46402532     1.11160
C1979       C  0.81033519  0.83258112  0.48232301     1.11140
O1980       O  0.71307419  0.67584156  0.22079495    -0.78480
O1981       O  0.74656435  0.80820450  0.23260979    -0.78500
O1982       O  0.66774558  0.69998328  0.29591415    -0.78510
O1983       O  0.74441552  0.76268358  0.19001909    -0.78450
O1984       O  0.68717328  0.75480867  0.27109450    -0.78580
O1985       O  0.76871109  0.72673596  0.18676676    -0.78500
O1986       O  0.79618974  0.83783668  0.20358251    -0.78480
O1987       O  0.68877138  0.70899990  0.23533508    -0.78520
C1988       C  0.68571170  0.68176358  0.22141665     1.11210
C1989       C  0.77372591  0.83910249  0.22251938     1.11090
C1990       C  0.66206392  0.72631067  0.28663223     1.11230
C1991       C  0.75031626  0.74100528  0.17442368     1.11110
O1992       O  0.82234462  0.74181492  0.23541598    -0.78480
O1993       O  0.74208282  0.77344957  0.32081491    -0.78560
O1994       O  0.70615235  0.66467453  0.27841567    -0.78490
O1995       O  0.82725289  0.81685828  0.25163757    -0.78470
O1996       O  0.79696971  0.82561008  0.28704831    -0.78530
O1997       O  0.76524440  0.68459131  0.27109110    -0.78490
O1998       O  0.82364759  0.78547099  0.20278270    -0.78450
O1999       O  0.73866577  0.72022338  0.31816948    -0.78520
Co2000     Co  0.76753906  0.70987722  0.23084338     1.51530
Co2001     Co  0.74482364  0.78657971  0.27556885     1.51690
Co2002     Co  0.71453319  0.71681019  0.27650262     1.51570
Co2003     Co  0.78346551  0.78973146  0.22366321     1.51470
O2004       O  0.76208454  0.74855226  0.25586052    -1.40410
C2005       C  0.83892389  0.76758078  0.21497719     1.11140
C2006       C  0.74242636  0.74617068  0.33431902     1.11230
C2007       C  0.73254946  0.65768313  0.27557539     1.11160
C2008       C  0.82743578  0.83284358  0.27538631     1.11140
C2009       C  0.73985144  0.74500872  0.39559755    -0.11620
C2010       C  0.74337396  0.74417996  0.36790094    -0.13170
C2011       C  0.74071141  0.72715782  0.11484374    -0.11620
C2012       C  0.74026284  0.73393223  0.14187665    -0.13170
C2013       C  0.78159257  0.87271080  0.23694875    -0.11620
C2014       C  0.78136468  0.89692493  0.25108312    -0.13170
C2015       C  0.71840467  0.59510229  0.25107876    -0.11620
C2016       C  0.72318369  0.62175788  0.26491356    -0.13170
C2017       C  0.74143400  0.96835462  0.39120504    -0.11620
C2018       C  0.74687597  0.47030956  0.36388428    -0.13170
C2019       C  0.75607680  0.52792624  0.11791447    -0.11620
C2020       C  0.75332730  0.02208290  0.14554146    -0.13170
C2021       C  0.75064025  0.85199729  0.04372396    -0.11620
C2022       C  0.74585985  0.87824398  0.03747353    -0.13170
C2023       C  0.75636170  0.65113865  0.46121832    -0.11620
C2024       C  0.75931322  0.62412775  0.46814692    -0.13170
C2025       C  0.90035663  0.62159491  0.29125187    -0.11620
C2026       C  0.87317773  0.59098247  0.29423079    -0.13170
C2027       C  0.62539244  0.90058582  0.20017719    -0.11620
C2028       C  0.59734298  0.87062552  0.19935085    -0.13170
C2029       C  0.87367161  0.77381903  0.20399190    -0.11620
C2030       C  0.90007929  0.76990381  0.19997233    -0.13170
C2031       C  0.62679999  0.72395919  0.29138541    -0.11620
C2032       C  0.59919547  0.72668392  0.29340836    -0.13170
C2033       C  0.99072877  0.75848577  0.38824949    -0.11620
C2034       C  0.49594164  0.75932121  0.36068479    -0.13170
C2035       C  0.00305060  0.74896162  0.14088331    -0.11620
C2036       C  0.50743855  0.75739692  0.11352107    -0.13170
C2037       C  0.90783141  0.62605355  0.03766313    -0.11620
C2038       C  0.87565447  0.59989648  0.03712776    -0.13170
C2039       C  0.59928512  0.87183298  0.46680323    -0.11620
C2040       C  0.62853391  0.90008550  0.47332881    -0.13170
C2041       C  0.86943301  0.71150582  0.49515420    -0.11620
C2042       C  0.84362312  0.70782157  0.01062168    -0.13170
C2043       C  0.64132088  0.75711050  0.50857172    -0.11620
C2044       C  0.61714935  0.75065711  0.02714915    -0.13170
C2045       C  0.89096065  0.89293736  0.28245003    -0.11620
C2046       C  0.86244133  0.86346933  0.28559912    -0.13170
C2047       C  0.62287783  0.62104181  0.21888350    -0.11620
C2048       C  0.64944443  0.65150054  0.21532854    -0.13170
C2049       C  0.88273543  0.00792976  0.22293876    -0.11620
C2050       C  0.85519535  0.01042223  0.21625612    -0.13170
C2051       C  0.63144929  0.48785307  0.29103431    -0.11620
C2052       C  0.60268316  0.48900047  0.28677379    -0.13170
C2053       C  0.50906013  0.87262776  0.25183940    -0.11620
C2054       C  0.51013834  0.90086678  0.24202405    -0.13170
C2055       C  0.01166978  0.64937564  0.22868321    -0.11620
C2056       C  0.01499896  0.62248143  0.23510872    -0.13170
C2057       C  0.01517273  0.03846475  0.35508138    -0.11620
C2058       C  0.01328230  0.53235969  0.38272993    -0.13170
C2059       C  0.47521766  0.49003613  0.10632557    -0.11620
C2060       C  0.47315142  0.48484141  0.13412174    -0.13170
C2061       C  0.84541121  0.86460129  0.49143005    -0.11620
C2062       C  0.87666627  0.88794681  0.99999323    -0.13170
C2063       C  0.61994913  0.59104330  0.48333897    -0.11620
C2064       C  0.64869908  0.61032911  0.99792296    -0.13170
C2065       C  0.85340502  0.99257221  0.46939330    -0.11620
C2066       C  0.88439047  0.00105503  0.46080199    -0.13170
C2067       C  0.61986348  0.51420037  0.04428857    -0.11620
C2068       C  0.64753563  0.51307469  0.03622679    -0.13170
C2069       C  0.50641529  0.87306980  0.00295189    -0.11540
C2070       C  0.00174250  0.89582390  0.48739003    -0.13170
C2071       C  0.03249792  0.65846531  0.49686786    -0.11620
C2072       C  0.53697345  0.63358238  0.00955259    -0.13170
O2073       O  0.55550576  0.58752340  0.52498050    -0.78480
O2074       O  0.91812976  0.94558271  0.48249815    -0.78500
O2075       O  0.94626594  0.53564877  0.97725722    -0.78510
O2076       O  0.47908247  0.96462066  0.56144522    -0.78450
O2077       O  0.93500055  0.99725322  0.94081018    -0.78580
O2078       O  0.50946482  0.52525171  0.56257762    -0.78500
O2079       O  0.94264357  0.92011758  0.51403620    -0.78480
O2080       O  0.99875592  0.57007000  0.01627753    -0.78520
C2081       C  0.53040580  0.59670234  0.52086852     1.11210
C2082       C  0.91404511  0.91973851  0.50048657     1.11090
C2083       C  0.92353073  0.51243775  0.95870702     1.11230
C2084       C  0.48742977  0.99380037  0.57503423     1.11110
O2085       O  0.58311311  0.54347782  0.54971450    -0.78480
O2086       O  0.00397788  0.99577133  0.92830588    -0.78560
O2087       O  0.55856860  0.58057762  0.97072222    -0.78490
O2088       O  0.52094247  0.95788990  0.48453125    -0.78470
O2089       O  0.97003940  0.92485426  0.96149380    -0.78530
O2090       O  0.56668709  0.53511661  0.98786192    -0.78490
O2091       O  0.55443022  0.98582820  0.53499862    -0.78450
O2092       O  0.99999543  0.54648668  0.92979898    -0.78520
Co2093     Co  0.53816740  0.53050478  0.52449548     1.51530
Co2094     Co  0.96168190  0.96996855  0.95702228     1.51690
Co2095     Co  0.00036380  0.55469713  0.97501215     1.51570
Co2096     Co  0.49823689  0.96160027  0.52144964     1.51470
O2097       O  0.49210550  0.50430177  0.49570430    -1.40410
C2098       C  0.58425045  0.01423868  0.54515212     1.11140
C2099       C  0.00717011  0.52515395  0.91534421     1.11230
C2100       C  0.58042749  0.56720326  0.97662119     1.11160
C2101       C  0.99932654  0.92741274  0.97412746     1.11140
O2102       O  0.51731635  0.51044807  0.67285844    -0.78480
O2103       O  0.98122877  0.55842232  0.74029716    -0.78500
O2104       O  0.93204107  0.99464622  0.71750096    -0.78510
O2105       O  0.59073682  0.57199873  0.75479501    -0.78450
O2106       O  0.91896247  0.00316833  0.76490221    -0.78580
O2107       O  0.57526782  0.56351808  0.70479769    -0.78500
O2108       O  0.53697156  0.58543179  0.76104914    -0.78480
O2109       O  0.96369500  0.96022546  0.68597656    -0.78520
C2110       C  0.48455106  0.48511936  0.66603527     1.11210
C2111       C  0.01130511  0.58742887  0.74566765     1.11090
C2112       C  0.91159658  0.00087861  0.73569382     1.11230
C2113       C  0.59505080  0.58391409  0.72658262     1.11110
O2114       O  0.58266505  0.50796337  0.74204290    -0.78480
O2115       O  0.94411131  0.95471897  0.77853639    -0.78560
O2116       O  0.98627948  0.93963906  0.74712828    -0.78490
O2117       O  0.55260388  0.55669861  0.81202223    -0.78470
O2118       O  0.98911012  0.02631712  0.80397410    -0.78530
O2119       O  0.52452457  0.95335194  0.70884689    -0.78490
O2120       O  0.55041220  0.49861546  0.78464880    -0.78450
O2121       O  0.91517811  0.92504830  0.73599322    -0.78520
Co2122     Co  0.54796993  0.50909134  0.70819294     1.51530
Co2123     Co  0.96732209  0.00848163  0.75856340     1.51690
Co2124     Co  0.96263690  0.96882523  0.73147766     1.51570
Co2125     Co  0.53959266  0.53916181  0.77228424     1.51470
O2126       O  0.51233703  0.51357111  0.73626032    -1.40410
C2127       C  0.57649551  0.49779507  0.77054809     1.11140
C2128       C  0.91751002  0.92547925  0.76536568     1.11230
C2129       C  0.50711542  0.93273514  0.73197824     1.11160
C2130       C  0.01921979  0.04187143  0.82213165     1.11140
O2131       O  0.93077002  0.68071436  0.51019962    -0.78480
O2132       O  0.54191554  0.84501074  0.52027209    -0.78500
O2133       O  0.49772925  0.73136565  0.56600903    -0.78510
O2134       O  0.92973363  0.75954772  0.99281264    -0.78450
O2135       O  0.53367089  0.79137371  0.56665650    -0.78580
O2136       O  0.91773971  0.71464045  0.96319462    -0.78500
O2137       O  0.98324269  0.81150842  0.01840279    -0.78480
O2138       O  0.97430282  0.67280991  0.53446969    -0.78520
C2139       C  0.93941831  0.66174110  0.52835096     1.11210
C2140       C  0.51049500  0.84325239  0.51829254     1.11090
C2141       C  0.51248657  0.76068322  0.58054007     1.11230
C2142       C  0.90673420  0.72896792  0.98245556     1.11110
O2143       O  0.98963632  0.72990975  0.93640414    -0.78480
O2144       O  0.57882313  0.77432010  0.52766055    -0.78560
O2145       O  0.03871105  0.71846677  0.49012598    -0.78490
O2146       O  0.53278541  0.83253609  0.96340895    -0.78470
O2147       O  0.56746654  0.80919991  0.97978959    -0.78530
O2148       O  0.98594304  0.67322397  0.97795387    -0.78490
O2149       O  0.97270356  0.77273055  0.93455186    -0.78450
O2150       O  0.55548520  0.71819616  0.54970794    -0.78520
Co2151     Co  0.96109513  0.70570998  0.97415888     1.51530
Co2152     Co  0.54807319  0.79885223  0.52163667     1.51690
Co2153     Co  0.51809258  0.72732270  0.52750467     1.51570
Co2154     Co  0.98052971  0.79091072  0.97853053     1.51470
O2155       O  0.99560960  0.75367806  0.50138601    -1.40410
C2156       C  0.98474207  0.75405616  0.92136149     1.11140
C2157       C  0.58333980  0.74785547  0.53838483     1.11230
C2158       C  0.02002315  0.68471950  0.98482075     1.11160
C2159       C  0.56521008  0.83547282  0.96668147     1.11140
O2160       O  0.91883826  0.67844817  0.76543679    -0.78480
O2161       O  0.53409809  0.83504441  0.76951267    -0.78500
O2162       O  0.48485555  0.72716614  0.81498530    -0.78510
O2163       O  0.95825188  0.77436793  0.69356121    -0.78450
O2164       O  0.52931488  0.78463541  0.81440152    -0.78580
O2165       O  0.91696273  0.72957488  0.72393962    -0.78500
O2166       O  0.98386590  0.81086443  0.74147420    -0.78480
O2167       O  0.96326770  0.66751078  0.78319226    -0.78520
C2168       C  0.92876386  0.65789918  0.78067172     1.11210
C2169       C  0.50762570  0.83756970  0.75633056     1.11090
C2170       C  0.50319298  0.75715777  0.82856026     1.11230
C2171       C  0.92592506  0.75696863  0.70524057     1.11110
O2172       O  0.96237409  0.71853093  0.68213902    -0.78480
O2173       O  0.57003748  0.76057416  0.77539315    -0.78560
O2174       O  0.02404267  0.70851272  0.73994879    -0.78490
O2175       O  0.53320887  0.82855652  0.69537090    -0.78470
O2176       O  0.56796792  0.81233329  0.72652358    -0.78530
O2177       O  0.96714832  0.66887875  0.72472702    -0.78490
O2178       O  0.02050866  0.75837217  0.69316866    -0.78450
O2179       O  0.53656721  0.70701882  0.80223601    -0.78520
Co2180     Co  0.94434274  0.70206871  0.72598196     1.51530
Co2181     Co  0.54279687  0.79156898  0.76923561     1.51690
Co2182     Co  0.50566045  0.72011182  0.77735156     1.51570
Co2183     Co  0.00383965  0.78476328  0.71946720     1.51470
O2184       O  0.98628618  0.74645680  0.75161384    -1.40410
C2185       C  0.99571215  0.73974771  0.67337813     1.11140
C2186       C  0.56760188  0.73226414  0.79162892     1.11230
C2187       C  0.00134712  0.67771720  0.72876326     1.11160
C2188       C  0.56501095  0.83566435  0.70683575     1.11140
O2189       O  0.70281816  0.50797075  0.53829537    -0.78480
O2190       O  0.73939329  0.90971057  0.49272919    -0.78500
O2191       O  0.67479170  0.96163054  0.96177285    -0.78510
O2192       O  0.75217039  0.49898051  0.57146686    -0.78450
O2193       O  0.68769996  0.93264197  0.00013170    -0.78580
O2194       O  0.76539932  0.55841292  0.56907019    -0.78500
O2195       O  0.74269672  0.93418871  0.53802025    -0.78480
O2196       O  0.68594460  0.02273071  0.49340305    -0.78520
C2197       C  0.67971129  0.51373175  0.52203158     1.11210
C2198       C  0.74263423  0.90850199  0.52218365     1.11090
C2199       C  0.66468095  0.93323481  0.97969972     1.11230
C2200       C  0.75876157  0.52904439  0.58490551     1.11110
O2201       O  0.81192870  0.57496866  0.51934415    -0.78480
O2202       O  0.72518297  0.94768978  0.94251887    -0.78560
O2203       O  0.75597856  0.56761772  0.96041502    -0.78490
O2204       O  0.81701982  0.48425455  0.01255630    -0.78470
O2205       O  0.79061877  0.97775631  0.96745818    -0.78530
O2206       O  0.75028207  0.57973230  0.00817629    -0.78490
O2207       O  0.82648383  0.53892335  0.54620302    -0.78450
O2208       O  0.74441207  0.00643189  0.93008420    -0.78520
Co2209     Co  0.75782136  0.53908457  0.52882017     1.51530
Co2210     Co  0.74129238  0.95655633  0.98699938     1.51690
Co2211     Co  0.71816777  0.01424235  0.96393058     1.51570
Co2212     Co  0.78018096  0.49074525  0.53675362     1.51470
O2213       O  0.75387810  0.00702503  0.49606196    -1.40410
C2214       C  0.83656997  0.57025893  0.53383459     1.11140
C2215       C  0.73665141  0.97425134  0.92256478     1.11230
C2216       C  0.75622767  0.58957156  0.97960211     1.11160
C2217       C  0.81898362  0.98452758  0.98361544     1.11140
O2218       O  0.69774918  0.51801187  0.79370044    -0.78480
O2219       O  0.73937809  0.91752093  0.75679034    -0.78500
O2220       O  0.67257862  0.96401300  0.70338153    -0.78510
O2221       O  0.76425683  0.46897874  0.81314824    -0.78450
O2222       O  0.68156329  0.92018098  0.72607349    -0.78580
O2223       O  0.75196749  0.51183383  0.82461816    -0.78500
O2224       O  0.79788499  0.95608320  0.76835404    -0.78480
O2225       O  0.66831976  0.97718104  0.75914905    -0.78520
C2226       C  0.66729407  0.49303778  0.78238228     1.11210
C2227       C  0.77226423  0.92348022  0.76195691     1.11090
C2228       C  0.66126378  0.92977755  0.70995755     1.11230
C2229       C  0.75426119  0.48359083  0.83245086     1.11110
O2230       O  0.80913075  0.56120113  0.78085903    -0.78480
O2231       O  0.73295806  0.97338273  0.68205633    -0.78560
O2232       O  0.69390855  0.54025183  0.72142744    -0.78490
O2233       O  0.81162939  0.52390376  0.73528347    -0.78470
O2234       O  0.79108486  0.97155397  0.71239270    -0.78530
O2235       O  0.74909645  0.56160280  0.74485153    -0.78490
O2236       O  0.83428403  0.52585761  0.79587383    -0.78450
O2237       O  0.74941783  0.02829372  0.69860189    -0.78520
Co2238     Co  0.75094524  0.53263854  0.78275266     1.51530
Co2239     Co  0.73602530  0.94777602  0.72175715     1.51690
Co2240     Co  0.71067685  0.00426305  0.73116240     1.51570
Co2241     Co  0.78710481  0.49790706  0.77463237     1.51470
O2242       O  0.73790334  0.98319279  0.75519801    -1.40410
C2243       C  0.83729411  0.55773168  0.79149363     1.11140
C2244       C  0.74609086  0.00781443  0.67686989     1.11230
C2245       C  0.72061119  0.56539209  0.73751723     1.11160
C2246       C  0.81760365  0.00375818  0.71837272     1.11140
O2247       O  0.67094353  0.66786157  0.51635224    -0.78480
O2248       O  0.78208818  0.81671952  0.54255966    -0.78500
O2249       O  0.73392483  0.69906356  0.56609987    -0.78510
O2250       O  0.69404936  0.77543484  0.97467950    -0.78450
O2251       O  0.77782403  0.75644063  0.57223099    -0.78580
O2252       O  0.65826324  0.71781818  0.99239276    -0.78500
O2253       O  0.72839092  0.79632980  0.02082505    -0.78480
O2254       O  0.71075760  0.64929287  0.51763402    -0.78520
C2255       C  0.67682992  0.64158325  0.51480314     1.11210
C2256       C  0.75305639  0.81936884  0.53769271     1.11090
C2257       C  0.75080600  0.72696985  0.58305502     1.11230
C2258       C  0.66485777  0.75041704  0.98925087     1.11110
O2259       O  0.69926478  0.72669823  0.93782091    -0.78480
O2260       O  0.81634282  0.74436299  0.52014148    -0.78560
O2261       O  0.76891926  0.70719804  0.47954211    -0.78490
O2262       O  0.78032213  0.83369531  0.97412261    -0.78470
O2263       O  0.80752881  0.80075526  0.98761721    -0.78530
O2264       O  0.71291381  0.67151116  0.96137797    -0.78490
O2265       O  0.75815233  0.76614276  0.94651538    -0.78450
O2266       O  0.78585247  0.68496590  0.53604259    -0.78520
Co2267     Co  0.68820879  0.69855511  0.97866814     1.51530
Co2268     Co  0.78938010  0.77433623  0.52853529     1.51690
Co2269     Co  0.75264954  0.70346171  0.52305286     1.51570
Co2270     Co  0.74554650  0.78125434  0.98577978     1.51470
O2271       O  0.73189659  0.73512978  0.50874964    -1.40410
C2272       C  0.73225644  0.74597627  0.92792714     1.11140
C2273       C  0.81515223  0.71272830  0.52500990     1.11230
C2274       C  0.74702737  0.67983775  0.96402498     1.11160
C2275       C  0.81033526  0.83258129  0.98232295     1.11140
O2276       O  0.71307423  0.67584154  0.72079510    -0.78480
O2277       O  0.74656434  0.80820442  0.73260992    -0.78500
O2278       O  0.66774589  0.69998332  0.79591449    -0.78510
O2279       O  0.74441549  0.76268361  0.69001926    -0.78450
O2280       O  0.68717348  0.75480865  0.77109476    -0.78580
O2281       O  0.76871101  0.72673595  0.68676684    -0.78500
O2282       O  0.79618973  0.83783669  0.70358265    -0.78480
O2283       O  0.68877138  0.70899980  0.73533535    -0.78520
C2284       C  0.68571174  0.68176355  0.72141683     1.11210
C2285       C  0.77372583  0.83910243  0.72251950     1.11090
C2286       C  0.66206414  0.72631063  0.78663247     1.11230
C2287       C  0.75031620  0.74100532  0.67442382     1.11110
O2288       O  0.82234467  0.74181492  0.73541594    -0.78480
O2289       O  0.74208323  0.77344963  0.82081502    -0.78560
O2290       O  0.70615256  0.66467453  0.77841584    -0.78490
O2291       O  0.82725303  0.81685827  0.75163761    -0.78470
O2292       O  0.79696990  0.82561015  0.78704833    -0.78530
O2293       O  0.76524458  0.68459132  0.77109114    -0.78490
O2294       O  0.82364758  0.78547099  0.70278269    -0.78450
O2295       O  0.73866624  0.72022346  0.81816954    -0.78520
Co2296     Co  0.76753912  0.70987721  0.73084343     1.51530
Co2297     Co  0.74482383  0.78657971  0.77556897     1.51690
Co2298     Co  0.71453341  0.71681019  0.77650281     1.51570
Co2299     Co  0.78346558  0.78973147  0.72366331     1.51470
O2300       O  0.76208467  0.74855226  0.75586059    -1.40410
C2301       C  0.83892389  0.76758076  0.71497713     1.11140
C2302       C  0.74242695  0.74617081  0.83431908     1.11230
C2303       C  0.73254966  0.65768314  0.77557549     1.11160
C2304       C  0.82743595  0.83284361  0.77538633     1.11140
C2305       C  0.73985235  0.74500902  0.89559756    -0.11620
C2306       C  0.74337482  0.74418018  0.86790097    -0.13170
C2307       C  0.74071141  0.72715803  0.61484388    -0.11620
C2308       C  0.74026278  0.73393237  0.64187678    -0.13170
C2309       C  0.78159231  0.87271071  0.73694880    -0.11620
C2310       C  0.78136425  0.89692476  0.75108314    -0.13170
C2311       C  0.71840485  0.59510232  0.75107881    -0.11620
C2312       C  0.72318387  0.62175789  0.76491364    -0.13170
C2313       C  0.74143418  0.96835529  0.89120522    -0.11620
C2314       C  0.74687598  0.47030973  0.86388441    -0.13170
C2315       C  0.75607705  0.52792582  0.61791440    -0.11620
C2316       C  0.75332645  0.02208268  0.64554122    -0.13170
C2317       C  0.75063977  0.85199690  0.54372402    -0.11620
C2318       C  0.74585939  0.87824359  0.53747356    -0.13170
C2319       C  0.75636123  0.65113865  0.96121811    -0.11620
C2320       C  0.75931267  0.62412774  0.96814683    -0.13170
C2321       C  0.90035669  0.62159494  0.79125210    -0.11620
C2322       C  0.87317781  0.59098247  0.79423097    -0.13170
C2323       C  0.62539220  0.90058605  0.70017718    -0.11620
C2324       C  0.59734280  0.87062572  0.69935092    -0.13170
C2325       C  0.87367159  0.77381898  0.70399181    -0.11620
C2326       C  0.90007924  0.76990370  0.69997232    -0.13170
C2327       C  0.62680010  0.72395900  0.79138542    -0.11620
C2328       C  0.59919549  0.72668366  0.79340806    -0.13170
C2329       C  0.99072911  0.75848619  0.88824953    -0.11620
C2330       C  0.49594125  0.75931975  0.86068469    -0.13170
C2331       C  0.00305026  0.74896132  0.64088332    -0.11620
C2332       C  0.50743901  0.75739792  0.61352081    -0.13170
C2333       C  0.90783143  0.62605299  0.53766313    -0.11620
C2334       C  0.87565464  0.59989571  0.53712778    -0.13170
C2335       C  0.59928531  0.87183358  0.96680381    -0.11620
C2336       C  0.62853415  0.90008621  0.97332925    -0.13170
C2337       C  0.86943299  0.71150583  0.99515381    -0.11620
C2338       C  0.84362329  0.70782167  0.51062219    -0.13170
C2339       C  0.64132174  0.75711180  0.00857103    -0.11620
C2340       C  0.61714848  0.75065595  0.52714980    -0.13170
C2341       C  0.89096080  0.89293739  0.78245006    -0.11620
C2342       C  0.86244150  0.86346934  0.78559913    -0.13170
C2343       C  0.62287795  0.62104177  0.71888328    -0.11620
C2344       C  0.64944450  0.65150057  0.71532850    -0.13170
C2345       C  0.88273522  0.00792953  0.72293874    -0.11620
C2346       C  0.85519509  0.01042193  0.71625614    -0.13170
C2347       C  0.63144947  0.48785312  0.79103443    -0.11620
C2348       C  0.60268332  0.48900049  0.78677395    -0.13170
C2349       C  0.50905987  0.87262741  0.75183966    -0.11620
C2350       C  0.51013821  0.90086650  0.74202427    -0.13170
C2351       C  0.01166974  0.64937552  0.72868332    -0.11620
C2352       C  0.01499903  0.62248135  0.73510872    -0.13170
C2353       C  0.01517269  0.03846447  0.85508117    -0.11620
C2354       C  0.01328242  0.53235923  0.88272977    -0.13170
C2355       C  0.47521808  0.49003573  0.60632560    -0.11620
C2356       C  0.47315169  0.48484098  0.63412176    -0.13170
C2357       C  0.84541105  0.86460143  0.99143024    -0.11620
C2358       C  0.87666651  0.88794672  0.49999293    -0.13170
C2359       C  0.61994864  0.59104239  0.98333921    -0.11620
C2360       C  0.64869959  0.61032961  0.49792286    -0.13170
C2361       C  0.85340500  0.99257218  0.96939302    -0.11620
C2362       C  0.88439037  0.00105490  0.96080163    -0.13170
C2363       C  0.61986497  0.51420195  0.54428912    -0.11620
C2364       C  0.64753684  0.51307587  0.53622717    -0.13170
C2365       C  0.50641680  0.87307086  0.50295184    -0.11540
C2366       C  0.00174179  0.89582333  0.98739009    -0.13170
C2367       C  0.03249837  0.65846575  0.99686785    -0.11620
C2368       C  0.53697288  0.63358224  0.50955278    -0.13170
loop_ 
_geom_bond_atom_site_label_1 
_geom_bond_atom_site_label_2 
_geom_bond_distance 
_geom_bond_site_symmetry_2 
_ccdc_geom_bond_type 
O1            C9   1.265       .  A
O1          Co21   2.104       .  S
O2           C10   1.235   1_556  A
O2         Co318   1.915       .  S
O3           C11   1.247       .  A
O3          Co23   1.951       .  S
O4           C12   1.252       .  A
O4          Co24   1.960       .  S
O5          C603   1.261       .  A
O5          Co22   2.011       .  S
O6          C604   1.264   1_445  A
O6          Co21   2.000       .  S
O7           C10   1.279       .  A
O7        Co1208   2.081       .  S
O8         C1489   1.229       .  A
O8          Co23   1.935       .  S
C9         O1488   1.229   1_455  A
C9          C296   1.474       .  S
C10         C286   1.438   1_554  S
C11         O597   1.261   1_545  A
C11         C882   1.432       .  S
C12         O598   1.264   1_655  A
C12         C875   1.433       .  S
O13         C618   1.262       .  A
O13         Co21   1.938       .  S
O14         C619   1.261       .  A
O14         Co22   1.969       .  S
O15          C28   1.278       .  A
O15       Co1207   2.081       .  S
O16        C1509   1.221   1_455  A
O16         Co24   1.928   1_456  S
O17          C29   1.252       .  A
O17         Co22   2.061       .  S
O18          C28   1.238       .  A
O18        Co317   1.950       .  S
O19          C26   1.282       .  A
O19         Co24   2.069   1_455  S
O20          C27   1.261       .  A
O20         Co23   1.994       .  S
Co21        O314   1.950   1_554  S
Co21         O25   2.042   1_454  S
Co22        O298   1.915       .  S
Co22       O2097   2.158       .  S
Co23       O1199   2.081       .  S
Co23       O1505   2.099       .  S
Co24       O1191   2.081       .  S
Co24        O617   2.155   1_554  S
O25       Co2094   2.158   1_545  S
O25       Co1503   2.099   1_655  S
O25        Co616   2.155   1_546  S
C26         O605   1.262       .  A
C26         C883   1.461       .  S
C27         O606   1.261   1_545  A
C27         C282   1.429       .  S
C28         C287   1.440       .  S
C29        O1496   1.221       .  A
C29         C294   1.449       .  S
O30          C38   1.258   1_445  A
O30         Co50   1.948       .  S
O31          C39   1.242       .  A
O31        Co643   1.982       .  S
O32          C40   1.295       .  A
O32         Co52   2.070       .  S
O33          C41   1.274       .  A
O33         Co53   1.999       .  S
O34          C40   1.279       .  A
O34         Co51   1.910       .  S
O35          C41   1.259       .  A
O35         Co50   1.957       .  S
O36        C1223   1.253       .  A
O36         Co53   2.008       .  S
O37        C1814   1.275       .  A
O37         Co52   2.018       .  S
C38        O1813   1.275       .  A
C38         C284   1.432       .  S
C39        O1220   1.253       .  A
C39         C280   1.436       .  S
C40         C273   1.434       .  S
C41         C271   1.417       .  S
O42          C55   1.272   1_545  A
O42         Co50   2.007       .  S
O43          C56   1.296       .  A
O43         Co51   2.091       .  S
O44        C1241   1.244       .  A
O44         Co52   1.971       .  S
O45        C1834   1.272       .  A
O45         Co53   1.847       .  S
O46          C58   1.313       .  A
O46         Co51   2.125       .  S
O47          C57   1.265       .  A
O47        Co642   2.012       .  S
O48          C55   1.267       .  A
O48         Co53   1.984   1_565  S
O49          C56   1.266       .  A
O49         Co52   1.894       .  S
Co50        O639   2.012   1_545  S
Co50         O54   2.019       .  S
Co51        O623   1.982       .  S
Co51       O1830   2.026       .  S
Co52       O1830   1.964       .  S
Co53         O54   1.903       .  S
O54       Co1827   2.026   1_455  S
O54       Co1828   1.964   1_445  S
C55         C276   1.439       .  S
C56         C269   1.431       .  S
C57        O1228   1.244   1_455  A
C57         C278   1.431       .  S
C58        O1821   1.272       .  A
C58         C281   1.429       .  S
O59          C67   1.244       .  A
O59        Co375   1.936   1_554  S
O60          C68   1.251       .  A
O60         Co80   2.049       .  S
O61          C69   1.245   1_655  A
O61         Co81   1.941   1_655  S
O62          C70   1.235       .  A
O62         Co82   1.930       .  S
O63          C69   1.263       .  A
O63         Co80   2.016       .  S
O64          C70   1.264       .  A
O64         Co79   2.019       .  S
O65        C1548   1.230       .  A
O65         Co82   1.933       .  S
O66          C67   1.283       .  A
O66       Co1265   2.085       .  S
C67         C261   1.449       .  S
C68        O1545   1.230   1_455  A
C68         C293   1.451       .  S
C69         C260   1.435       .  S
C70         C265   1.444       .  S
O71          C84   1.259       .  A
O71         Co79   1.962       .  S
O72          C85   1.263       .  A
O72         Co80   1.977       .  S
O73         C382   1.244       .  A
O73       Co1265   1.983   1_556  S
O74          C87   1.273       .  A
O74       Co1266   2.074   1_455  S
O75          C87   1.244       .  A
O75        Co376   1.943       .  S
O76          C86   1.256       .  A
O76         Co79   2.051       .  S
O77          C84   1.272       .  A
O77         Co82   2.030       .  S
O78          C85   1.280       .  A
O78         Co81   1.953       .  S
Co79        O355   1.936       .  S
Co79        O379   2.151       .  S
Co80        O371   1.943   1_554  S
Co80       O1267   2.209   1_455  S
Co81       O1250   2.085   1_455  S
Co81       O1257   1.983   1_554  S
Co81       O1267   2.024   1_455  S
Co82       O1258   2.074       .  S
Co82        O379   2.116       .  S
O83        Co375   2.151   1_554  S
O83       Co1264   2.209       .  S
O83       Co1265   2.024       .  S
O83        Co378   2.116   1_554  S
C84         C257   1.446       .  S
C85         C268   1.434       .  S
C86         O369   1.244       .  A
C86         C295   1.479       .  S
C87         C263   1.457       .  S
O88          C96   1.260       .  A
O88        Co108   1.976       .  S
O89          C97   1.250       .  A
O89        Co109   2.005       .  S
O90          C98   1.249   1_655  A
O90        Co110   1.965   1_655  S
O91          C99   1.262       .  A
O91        Co111   1.996       .  S
O92          C98   1.259       .  A
O92        Co109   2.014       .  S
O93          C99   1.261       .  A
O93        Co108   1.955       .  S
O94        C1281   1.236       .  A
O94        Co111   1.949       .  S
O95          C96   1.263       .  A
O95       Co1294   2.010       .  S
C96         C249   1.434       .  S
C97        O1278   1.236   1_455  A
C97         C277   1.429       .  S
C98         C258   1.445   1_455  S
C99         C254   1.411       .  S
O100        C113   1.262       .  A
O100       Co108   2.017       .  S
O101        C114   1.297       .  A
O101       Co109   2.082       .  S
O102        C115   1.252       .  A
O102      Co1294   1.986       .  S
O103        C116   1.266       .  A
O103      Co1295   1.886       .  S
O104        C116   1.301       .  A
O104       Co109   2.076       .  S
O105        C115   1.264       .  A
O105       Co108   2.016       .  S
O106        C113   1.251       .  A
O106       Co111   1.972       .  S
O107        C114   1.262       .  A
O107       Co110   1.885       .  S
Co108       O112   2.110       .  S
Co109      O1296   2.260   1_455  S
Co110      O1279   2.010   1_455  S
Co110      O1286   1.986       .  S
Co110      O1296   1.928   1_455  S
Co111      O1287   1.886       .  S
Co111       O112   1.918       .  S
O112      Co1293   2.260       .  S
O112      Co1294   1.928       .  S
C113        C259   1.437       .  S
C114        C256   1.421       .  S
C115        C279   1.434       .  S
C116        C252   1.426       .  S
O117        C125   1.262       .  A
O117       Co137   2.008       .  S
O118        C126   1.272   1_556  A
O118       Co434   1.908       .  S
O119        C127   1.266       .  A
O119       Co139   2.016       .  S
O120        C128   1.299   1_565  A
O120       Co140   2.065       .  S
O121        C127   1.270       .  A
O121       Co138   2.000       .  S
O122        C128   1.274       .  A
O122       Co137   1.897       .  S
O123        C126   1.294       .  A
O123       Co732   2.065       .  S
O124        C717   1.270   1_556  A
O124       Co435   2.033       .  S
C125        O716   1.270   1_554  A
C125        C292   1.464       .  S
C126        C246   1.448       .  S
C127        C264   1.459       .  S
C128        C243   1.429       .  S
O129        C142   1.255       .  A
O129       Co137   2.004       .  S
O130        C143   1.263       .  A
O130       Co138   1.992       .  S
O131        C144   1.258       .  A
O131       Co731   1.972       .  S
O132        C737   1.253       .  A
O132       Co436   2.002       .  S
O133        C145   1.240       .  A
O133       Co138   1.965       .  S
O134        C144   1.272       .  A
O134       Co433   2.017       .  S
O135        C142   1.247       .  A
O135       Co140   1.998   1_545  S
O136        C143   1.265       .  A
O136       Co139   1.980       .  S
Co137       O430   2.017       .  S
Co137       O733   1.936   1_554  S
Co138       O414   1.908       .  S
Co138       O437   1.947       .  S
Co139       O420   2.033       .  S
Co139       O723   1.972       .  S
Co139       O437   2.089       .  S
Co140       O715   2.065       .  S
Co140       O428   2.002       .  S
Co140       O733   2.264   1_564  S
O141       Co729   1.936   1_556  S
O141       Co434   1.947       .  S
O141       Co435   2.089       .  S
O141       Co732   2.264   1_556  S
C142        C262   1.459       .  S
C143        C241   1.425       .  S
C144        C248   1.437       .  S
C145        O724   1.253       .  A
C145        C289   1.435       .  S
O146        C154   1.256   1_545  A
O146       Co166   2.019       .  S
O147        C155   1.253       .  A
O147       Co167   1.957       .  S
O148        C156   1.274       .  A
O148       Co168   2.025       .  S
O149        C157   1.248       .  A
O149       Co169   1.970       .  S
O150        C156   1.258       .  A
O150       Co167   1.946       .  S
O151        C157   1.249   1_545  A
O151       Co166   1.967       .  S
O152        C155   1.266       .  A
O152       Co761   2.026       .  S
O153        C746   1.240       .  A
O153       Co168   1.955       .  S
C154        O745   1.240       .  A
C154        C275   1.437       .  S
C155        C238   1.432       .  S
C156        C251   1.423       .  S
C157        C242   1.422       .  S
O158        C171   1.293       .  A
O158       Co166   2.068       .  S
O159        C172   1.261       .  A
O159       Co167   1.999       .  S
O160        C173   1.279       .  A
O160       Co760   1.953       .  S
O161        C766   1.255       .  A
O161       Co169   1.982   1_545  S
O162        C174   1.263       .  A
O162       Co167   2.009       .  S
O163        C173   1.277       .  A
O163       Co166   1.998       .  S
O164        C171   1.269       .  A
O164       Co169   1.907   1_545  S
O165        C172   1.254       .  A
O165       Co168   1.988       .  S
Co166       O762   2.238   1_545  S
Co167       O170   2.083       .  S
Co168       O752   1.953       .  S
Co168       O170   1.964       .  S
Co169       O744   2.026       .  S
Co169       O762   1.950       .  S
O170       Co758   2.238       .  S
O170       Co761   1.950       .  S
C171        C250   1.434       .  S
C172        C244   1.428       .  S
C173        C239   1.435       .  S
C174        O753   1.255       .  A
C174        C274   1.428       .  S
O175        C183   1.233       .  A
O175       Co491   1.936   1_554  S
O176        C184   1.255       .  A
O176       Co196   2.048       .  S
O177        C185   1.264       .  A
O177       Co197   2.004       .  S
O178        C186   1.289       .  A
O178       Co198   2.037       .  S
O179        C185   1.254       .  A
O179       Co196   1.976       .  S
O180        C186   1.241       .  A
O180       Co195   1.892       .  S
O181        C480   1.228       .  A
O181       Co198   1.948       .  S
O182        C183   1.262       .  A
O182       Co197   2.054       .  S
C183        C288   1.439   1_554  S
C184        O477   1.228       .  A
C184        C245   1.442       .  S
C185        C235   1.450       .  S
C186        C267   1.435       .  S
O187        C200   1.258       .  A
O187       Co195   1.999       .  S
O188        C201   1.295       .  A
O188       Co196   2.084       .  S
O189        C498   1.245       .  A
O189       Co197   1.990   1_556  S
O190        C203   1.286       .  A
O190       Co198   1.967       .  S
O191        C203   1.276       .  A
O191       Co492   1.991       .  S
O192        C202   1.262       .  A
O192       Co195   2.030       .  S
O193        C200   1.256       .  A
O193       Co198   2.008       .  S
O194        C201   1.267       .  A
O194       Co197   1.918       .  S
Co195       O471   1.936       .  S
Co195       O495   2.116       .  S
Co196       O487   1.991   1_554  S
Co196       O199   2.250       .  S
Co197       O199   1.952       .  S
Co198       O495   1.933       .  S
O199       Co491   2.116   1_554  S
O199       Co494   1.933   1_554  S
C200        C233   1.448       .  S
C201        C266   1.448       .  S
C202        O485   1.245       .  A
C202        C247   1.432       .  S
C203        C285   1.443       .  S
O204        C212   1.262       .  A
O204       Co224   1.998       .  S
O205        C213   1.277       .  A
O205       Co225   2.004       .  S
O206        C214   1.267       .  A
O206       Co226   1.898       .  S
O207        C215   1.270       .  A
O207       Co227   2.024       .  S
O208        C214   1.292       .  A
O208       Co225   2.057       .  S
O209        C215   1.256       .  A
O209       Co224   1.984       .  S
O210        C213   1.278       .  A
O210       Co227   1.955       .  S
O211        C212   1.255       .  A
O211       Co226   1.981       .  S
C212        C272   1.411       .  S
C213        C237   1.435       .  S
C214        C255   1.421       .  S
C215        C236   1.448       .  S
O216        C229   1.269       .  A
O216       Co224   1.963       .  S
O217        C230   1.251       .  A
O217       Co225   1.990       .  S
O218        C231   1.263       .  A
O218       Co226   2.011       .  S
O219        C232   1.246       .  A
O219       Co227   1.968       .  S
O220        C232   1.251       .  A
O220       Co225   1.992       .  S
O221        C231   1.259       .  A
O221       Co224   1.961       .  S
O222        C229   1.269       .  A
O222       Co227   1.996       .  S
O223        C230   1.253       .  A
O223       Co226   1.989       .  S
Co224       O228   2.084       .  S
Co225       O228   2.239       .  S
Co226       O228   1.946       .  S
Co227       O228   1.994       .  S
C229        C253   1.412       .  S
C230        C234   1.446       .  S
C231        C240   1.437       .  S
C232        C270   1.431       .  S
C233        C234   1.213       .  T
C235        C236   1.216       .  T
C237        C238   1.205       .  T
C239        C240   1.208       .  T
C241        C834   1.199       .  T
C242        C833   1.199       .  T
C243        C836   1.202       .  T
C244        C835   1.202       .  T
C245        C246   1.214       .  T
C247        C248   1.206       .  T
C249        C250   1.205       .  T
C251        C252   1.201       .  T
C253        C254   1.191       .  T
C255        C256   1.198       .  T
C257       C1442   1.212       .  T
C258       C1441   1.212       .  T
C259       C1444   1.208       .  T
C260       C1443   1.208       .  T
C261        C262   1.220       .  T
C263        C264   1.221       .  T
C265        C562   1.214       .  T
C266        C561   1.214   1_554  T
C267        C564   1.215       .  T
C268        C563   1.215       .  T
C269        C270   1.204       .  T
C271        C272   1.194       .  T
C273        C274   1.204       .  T
C275        C276   1.208       .  T
C277        C278   1.205       .  T
C279        C280   1.206       .  T
C281        C874   1.203       .  T
C282        C873   1.203       .  T
C283        C604   1.433       .  S
C283        C284   1.206       .  T
C285        C582   1.213       .  T
C286        C581   1.213       .  T
C287        C584   1.212       .  T
C288        C583   1.212       .  T
C289        C290   1.205       .  T
C290        C603   1.432       .  S
C291        C618   1.461       .  S
C291        C292   1.223       .  T
C293       C1774   1.217   1_554  T
C294       C1773   1.217       .  T
C295       C1776   1.232       .  T
C296       C1775   1.232   1_554  T
O297        C305   1.265       .  A
O297       Co317   2.104       .  S
O298        C306   1.235       .  A
O299        C307   1.247       .  A
O299       Co319   1.951       .  S
O300        C308   1.252       .  A
O300       Co320   1.960       .  S
O301        C899   1.261       .  A
O301       Co318   2.011       .  S
O302        C900   1.264   1_445  A
O302       Co317   2.000       .  S
O303        C306   1.279       .  A
O303      Co1504   2.081       .  S
O304       C1193   1.229       .  A
O304       Co319   1.935   1_554  S
C305       O1192   1.229   1_455  A
C305        C592   1.474       .  S
C306        C582   1.438       .  S
C307        O893   1.261   1_545  A
C307       C1178   1.432       .  S
C308        O894   1.264   1_655  A
C308       C1171   1.433       .  S
O309        C914   1.262       .  A
O309       Co317   1.938       .  S
O310        C915   1.261       .  A
O310       Co318   1.969       .  S
O311        C324   1.278       .  A
O311      Co1503   2.081       .  S
O312       C1213   1.221   1_455  A
O312       Co320   1.928   1_455  S
O313        C325   1.252       .  A
O313       Co318   2.061       .  S
O314        C324   1.238       .  A
O315        C322   1.282       .  A
O315       Co320   2.069   1_455  S
O316        C323   1.261       .  A
O316       Co319   1.994       .  S
Co317       O321   2.042   1_455  S
Co318      O1801   2.158       .  S
Co319      O1495   2.081       .  S
Co319      O1209   2.099       .  S
Co320      O1487   2.081       .  S
Co320       O913   2.155       .  S
O321      Co1798   2.158   1_545  S
O321      Co1207   2.099   1_655  S
O321       Co912   2.155   1_545  S
C322        O901   1.262       .  A
C322       C1179   1.461       .  S
C323        O902   1.261   1_545  A
C323        C578   1.429       .  S
C324        C583   1.440       .  S
C325       O1200   1.221       .  A
C325        C590   1.449       .  S
O326        C334   1.258   1_445  A
O326       Co346   1.948       .  S
O327        C335   1.242       .  A
O327       Co939   1.982       .  S
O328        C336   1.295       .  A
O328       Co348   2.070       .  S
O329        C337   1.274       .  A
O329       Co349   1.999       .  S
O330        C336   1.279       .  A
O330       Co347   1.910       .  S
O331        C337   1.259       .  A
O331       Co346   1.957       .  S
O332       C1519   1.253       .  A
O332       Co349   2.008       .  S
O333       C2110   1.275       .  A
O333       Co348   2.018       .  S
C334       O2109   1.275       .  A
C334        C580   1.432       .  S
C335       O1516   1.253       .  A
C335        C576   1.436       .  S
C336        C569   1.434       .  S
C337        C567   1.417       .  S
O338        C351   1.272   1_545  A
O338       Co346   2.007       .  S
O339        C352   1.296       .  A
O339       Co347   2.091       .  S
O340       C1537   1.244       .  A
O340       Co348   1.971       .  S
O341       C2130   1.272       .  A
O341       Co349   1.847       .  S
O342        C354   1.313       .  A
O342       Co347   2.125       .  S
O343        C353   1.265       .  A
O343       Co938   2.012       .  S
O344        C351   1.267       .  A
O344       Co349   1.984   1_565  S
O345        C352   1.266       .  A
O345       Co348   1.894       .  S
Co346       O935   2.012   1_545  S
Co346       O350   2.019       .  S
Co347       O919   1.982       .  S
Co347      O2126   2.026       .  S
Co348      O2126   1.964       .  S
Co349       O350   1.903       .  S
O350      Co2123   2.026   1_455  S
O350      Co2124   1.964   1_445  S
C351        C572   1.439       .  S
C352        C565   1.431       .  S
C353       O1524   1.244   1_455  A
C353        C574   1.431       .  S
C354       O2117   1.272       .  A
C354        C577   1.429       .  S
O355        C363   1.244       .  A
O356        C364   1.251       .  A
O356       Co376   2.049       .  S
O357        C365   1.245   1_655  A
O357       Co377   1.941   1_655  S
O358        C366   1.235       .  A
O358       Co378   1.930       .  S
O359        C365   1.263       .  A
O359       Co376   2.016       .  S
O360        C366   1.264       .  A
O360       Co375   2.019       .  S
O361       C1252   1.230       .  A
O361       Co378   1.933   1_554  S
O362        C363   1.283       .  A
O362      Co1561   2.085       .  S
C363        C557   1.449       .  S
C364       O1249   1.230   1_455  A
C364        C589   1.451       .  S
C365        C556   1.435       .  S
C366        C561   1.444       .  S
O367        C380   1.259       .  A
O367       Co375   1.962       .  S
O368        C381   1.263       .  A
O368       Co376   1.977       .  S
O369      Co1561   1.983       .  S
O370        C383   1.273       .  A
O370      Co1562   2.074   1_455  S
O371        C383   1.244       .  A
O372        C382   1.256       .  A
O372       Co375   2.051       .  S
O373        C380   1.272       .  A
O373       Co378   2.030       .  S
O374        C381   1.280       .  A
O374       Co377   1.953       .  S
Co376      O1563   2.209   1_455  S
Co377      O1546   2.085   1_455  S
Co377      O1553   1.983       .  S
Co377      O1563   2.024   1_455  S
Co378      O1554   2.074       .  S
O379      Co1560   2.209       .  S
O379      Co1561   2.024       .  S
C380        C553   1.446       .  S
C381        C564   1.434       .  S
C382        C591   1.479       .  S
C383        C559   1.457       .  S
O384        C392   1.260       .  A
O384       Co404   1.976       .  S
O385        C393   1.250       .  A
O385       Co405   2.005       .  S
O386        C394   1.249   1_655  A
O386       Co406   1.965   1_655  S
O387        C395   1.262       .  A
O387       Co407   1.996       .  S
O388        C394   1.259       .  A
O388       Co405   2.014       .  S
O389        C395   1.261       .  A
O389       Co404   1.955       .  S
O390       C1577   1.236       .  A
O390       Co407   1.949       .  S
O391        C392   1.263       .  A
O391      Co1590   2.010       .  S
C392        C545   1.434       .  S
C393       O1574   1.236   1_455  A
C393        C573   1.429       .  S
C394        C554   1.445   1_455  S
C395        C550   1.411       .  S
O396        C409   1.262       .  A
O396       Co404   2.017       .  S
O397        C410   1.297       .  A
O397       Co405   2.082       .  S
O398        C411   1.252       .  A
O398      Co1590   1.986       .  S
O399        C412   1.266       .  A
O399      Co1591   1.886       .  S
O400        C412   1.301       .  A
O400       Co405   2.076       .  S
O401        C411   1.264       .  A
O401       Co404   2.016       .  S
O402        C409   1.251       .  A
O402       Co407   1.972       .  S
O403        C410   1.262       .  A
O403       Co406   1.885       .  S
Co404       O408   2.110       .  S
Co405      O1592   2.260   1_455  S
Co406      O1575   2.010   1_455  S
Co406      O1582   1.986       .  S
Co406      O1592   1.928   1_455  S
Co407      O1583   1.886       .  S
Co407       O408   1.918       .  S
O408      Co1589   2.260       .  S
O408      Co1590   1.928       .  S
C409        C555   1.437       .  S
C410        C552   1.421       .  S
C411        C575   1.434       .  S
C412        C548   1.426       .  S
O413        C421   1.262       .  A
O413       Co433   2.008       .  S
O414        C422   1.272       .  A
O415        C423   1.266       .  A
O415       Co435   2.016       .  S
O416        C424   1.299   1_565  A
O416       Co436   2.065       .  S
O417        C423   1.270   1_554  A
O417       Co434   2.000   1_554  S
O418        C424   1.274       .  A
O418       Co433   1.897       .  S
O419        C422   1.294       .  A
O419      Co1028   2.065       .  S
O420       C1013   1.270       .  A
C421       O1012   1.270       .  A
C421        C588   1.464       .  S
C422        C542   1.448       .  S
C423        C560   1.459       .  S
C424        C539   1.429       .  S
O425        C438   1.255       .  A
O425       Co433   2.004       .  S
O426        C439   1.263       .  A
O426       Co434   1.992       .  S
O427        C440   1.258       .  A
O427      Co1027   1.972       .  S
O428       C1033   1.253   1_554  A
O429        C441   1.240       .  A
O429       Co434   1.965       .  S
O430        C440   1.272   1_554  A
O431        C438   1.247       .  A
O431       Co436   1.998   1_545  S
O432        C439   1.265       .  A
O432       Co435   1.980       .  S
Co433      O1029   1.936       .  S
Co435      O1019   1.972       .  S
Co436      O1011   2.065       .  S
Co436      O1029   2.264   1_565  S
O437      Co1025   1.936       .  S
O437      Co1028   2.264       .  S
C438        C558   1.459       .  S
C439        C537   1.425       .  S
C440        C544   1.437       .  S
C441       O1020   1.253   1_556  A
C441        C585   1.435       .  S
O442        C450   1.256   1_545  A
O442       Co462   2.019       .  S
O443        C451   1.253       .  A
O443       Co463   1.957       .  S
O444        C452   1.274       .  A
O444       Co464   2.025       .  S
O445        C453   1.248       .  A
O445       Co465   1.970       .  S
O446        C452   1.258       .  A
O446       Co463   1.946       .  S
O447        C453   1.249   1_545  A
O447       Co462   1.967       .  S
O448        C451   1.266       .  A
O448      Co1057   2.026       .  S
O449       C1042   1.240       .  A
O449       Co464   1.955       .  S
C450       O1041   1.240       .  A
C450        C571   1.437       .  S
C451        C534   1.432       .  S
C452        C547   1.423       .  S
C453        C538   1.422       .  S
O454        C467   1.293       .  A
O454       Co462   2.068       .  S
O455        C468   1.261       .  A
O455       Co463   1.999       .  S
O456        C469   1.279       .  A
O456      Co1056   1.953       .  S
O457       C1062   1.255       .  A
O457       Co465   1.982   1_545  S
O458        C470   1.263       .  A
O458       Co463   2.009       .  S
O459        C469   1.277       .  A
O459       Co462   1.998       .  S
O460        C467   1.269       .  A
O460       Co465   1.907   1_545  S
O461        C468   1.254       .  A
O461       Co464   1.988       .  S
Co462      O1058   2.238   1_545  S
Co463       O466   2.083       .  S
Co464      O1048   1.953       .  S
Co464       O466   1.964       .  S
Co465      O1040   2.026       .  S
Co465      O1058   1.950       .  S
O466      Co1054   2.238       .  S
O466      Co1057   1.950       .  S
C467        C546   1.434       .  S
C468        C540   1.428       .  S
C469        C535   1.435       .  S
C470       O1049   1.255       .  A
C470        C570   1.428       .  S
O471        C479   1.233       .  A
O472        C480   1.255       .  A
O472       Co492   2.048       .  S
O473        C481   1.264       .  A
O473       Co493   2.004       .  S
O474        C482   1.289       .  A
O474       Co494   2.037       .  S
O475        C481   1.254       .  A
O475       Co492   1.976       .  S
O476        C482   1.241       .  A
O476       Co491   1.892       .  S
O477       Co494   1.948   1_554  S
O478        C479   1.262       .  A
O478       Co493   2.054       .  S
C479        C584   1.439       .  S
C480        C541   1.442       .  S
C481        C531   1.450       .  S
C482        C563   1.435   1_556  S
O483        C496   1.258       .  A
O483       Co491   1.999       .  S
O484        C497   1.295       .  A
O484       Co492   2.084       .  S
O485       Co493   1.990       .  S
O486        C499   1.286       .  A
O486       Co494   1.967       .  S
O487        C499   1.276       .  A
O488        C498   1.262       .  A
O488       Co491   2.030       .  S
O489        C496   1.256       .  A
O489       Co494   2.008       .  S
O490        C497   1.267       .  A
O490       Co493   1.918       .  S
Co492       O495   2.250       .  S
Co493       O495   1.952       .  S
C496        C529   1.448       .  S
C497        C562   1.448       .  S
C498        C543   1.432       .  S
C499        C581   1.443       .  S
O500        C508   1.262       .  A
O500       Co520   1.998       .  S
O501        C509   1.277       .  A
O501       Co521   2.004       .  S
O502        C510   1.267       .  A
O502       Co522   1.898       .  S
O503        C511   1.270       .  A
O503       Co523   2.024       .  S
O504        C510   1.292       .  A
O504       Co521   2.057       .  S
O505        C511   1.256       .  A
O505       Co520   1.984       .  S
O506        C509   1.278       .  A
O506       Co523   1.955       .  S
O507        C508   1.255       .  A
O507       Co522   1.981       .  S
C508        C568   1.411       .  S
C509        C533   1.435       .  S
C510        C551   1.421       .  S
C511        C532   1.448       .  S
O512        C525   1.269       .  A
O512       Co520   1.963       .  S
O513        C526   1.251       .  A
O513       Co521   1.990       .  S
O514        C527   1.263       .  A
O514       Co522   2.011       .  S
O515        C528   1.246       .  A
O515       Co523   1.968       .  S
O516        C528   1.251       .  A
O516       Co521   1.992       .  S
O517        C527   1.259       .  A
O517       Co520   1.961       .  S
O518        C525   1.269       .  A
O518       Co523   1.996       .  S
O519        C526   1.253       .  A
O519       Co522   1.989       .  S
Co520       O524   2.084       .  S
Co521       O524   2.239       .  S
Co522       O524   1.946       .  S
Co523       O524   1.994       .  S
C525        C549   1.412       .  S
C526        C530   1.446       .  S
C527        C536   1.437       .  S
C528        C566   1.431       .  S
C529        C530   1.213       .  T
C531        C532   1.216       .  T
C533        C534   1.205       .  T
C535        C536   1.208       .  T
C537       C1130   1.199       .  T
C538       C1129   1.199       .  T
C539       C1132   1.202       .  T
C540       C1131   1.202       .  T
C541        C542   1.214       .  T
C543        C544   1.206       .  T
C545        C546   1.205       .  T
C547        C548   1.201       .  T
C549        C550   1.191       .  T
C551        C552   1.198       .  T
C553       C1738   1.212       .  T
C554       C1737   1.212       .  T
C555       C1740   1.208       .  T
C556       C1739   1.208       .  T
C557        C558   1.220       .  T
C559        C560   1.221       .  T
C565        C566   1.204       .  T
C567        C568   1.194       .  T
C569        C570   1.204       .  T
C571        C572   1.208       .  T
C573        C574   1.205       .  T
C575        C576   1.206       .  T
C577       C1170   1.203       .  T
C578       C1169   1.203       .  T
C579        C900   1.433       .  S
C579        C580   1.206       .  T
C585        C586   1.205       .  T
C586        C899   1.432       .  S
C587        C914   1.461       .  S
C587        C588   1.223       .  T
C589       C1478   1.217       .  T
C590       C1477   1.217   1_556  T
C591       C1480   1.232   1_556  T
C592       C1479   1.232       .  T
O593        C601   1.265       .  A
O593       Co613   2.104       .  S
O594        C602   1.235   1_556  A
O594       Co910   1.915       .  S
O595        C603   1.247       .  A
O595       Co615   1.951       .  S
O596        C604   1.252       .  A
O596       Co616   1.960       .  S
O597       Co614   2.011       .  S
O598       Co613   2.000       .  S
O599        C602   1.279       .  A
O599      Co1800   2.081       .  S
O600       C2081   1.229       .  A
O600       Co615   1.935       .  S
C601       O2080   1.229   1_455  A
C601        C888   1.474       .  S
C602        C878   1.438   1_554  S
O605       Co613   1.938       .  S
O606       Co614   1.969       .  S
O607        C620   1.278       .  A
O607      Co1799   2.081       .  S
O608       C2101   1.221   1_455  A
O608       Co616   1.928   1_456  S
O609        C621   1.252       .  A
O609       Co614   2.061       .  S
O610        C620   1.238       .  A
O610       Co909   1.950       .  S
O611        C618   1.282   1_565  A
O611       Co616   2.069   1_455  S
O612        C619   1.261       .  A
O612       Co615   1.994       .  S
Co613       O906   1.950   1_554  S
Co613       O617   2.042   1_454  S
Co614       O890   1.915       .  S
Co614      O1505   2.158   1_565  S
Co615      O1791   2.081       .  S
Co615      O2097   2.099       .  S
Co616      O1783   2.081       .  S
O617      Co1502   2.158       .  S
O617      Co2095   2.099   1_655  S
C619        C874   1.429       .  S
C620        C879   1.440       .  S
C621       O2088   1.221       .  A
C621        C886   1.449       .  S
O622        C630   1.258   1_455  A
O622       Co642   1.948       .  S
O623        C631   1.242       .  A
O624        C632   1.295   1_565  A
O624       Co644   2.070       .  S
O625        C633   1.274       .  A
O625       Co645   1.999       .  S
O626        C632   1.279       .  A
O626       Co643   1.910       .  S
O627        C633   1.259       .  A
O627       Co642   1.957       .  S
O628       C1815   1.253       .  A
O628       Co645   2.008       .  S
O629       C1222   1.275       .  A
O629       Co644   2.018       .  S
C630       O1221   1.275       .  A
C630        C876   1.432       .  S
C631       O1812   1.253       .  A
C631        C872   1.436       .  S
C632        C865   1.434       .  S
C633        C863   1.417       .  S
O634        C647   1.272       .  A
O634       Co642   2.007       .  S
O635        C648   1.296       .  A
O635       Co643   2.091   1_565  S
O636       C1833   1.244       .  A
O636       Co644   1.971       .  S
O637       C1242   1.272       .  A
O637       Co645   1.847       .  S
O638        C650   1.313       .  A
O638       Co643   2.125       .  S
O639        C649   1.265       .  A
O640        C647   1.267       .  A
O640       Co645   1.984       .  S
O641        C648   1.266       .  A
O641       Co644   1.894       .  S
Co642       O646   2.019       .  S
Co643      O1238   2.026       .  S
Co644      O1238   1.964   1_565  S
Co645       O646   1.903       .  S
O646      Co1235   2.026   1_455  S
O646      Co1236   1.964   1_455  S
C647        C868   1.439       .  S
C648        C861   1.431       .  S
C649       O1820   1.244   1_455  A
C649        C870   1.431       .  S
C650       O1229   1.272       .  A
C650        C873   1.429       .  S
O651        C659   1.244       .  A
O651       Co967   1.936   1_554  S
O652        C660   1.251       .  A
O652       Co672   2.049       .  S
O653        C661   1.245   1_655  A
O653       Co673   1.941   1_655  S
O654        C662   1.235       .  A
O654       Co674   1.930       .  S
O655        C661   1.263       .  A
O655       Co672   2.016       .  S
O656        C662   1.264       .  A
O656       Co671   2.019       .  S
O657       C2140   1.230       .  A
O657       Co674   1.933       .  S
O658        C659   1.283       .  A
O658      Co1857   2.085       .  S
C659        C853   1.449       .  S
C660       O2137   1.230   1_455  A
C660        C885   1.451       .  S
C661        C852   1.435       .  S
C662        C857   1.444       .  S
O663        C676   1.259       .  A
O663       Co671   1.962       .  S
O664        C677   1.263       .  A
O664       Co672   1.977       .  S
O665        C974   1.244       .  A
O665      Co1857   1.983   1_556  S
O666        C679   1.273       .  A
O666      Co1858   2.074   1_455  S
O667        C679   1.244       .  A
O667       Co968   1.943       .  S
O668        C678   1.256       .  A
O668       Co671   2.051       .  S
O669        C676   1.272       .  A
O669       Co674   2.030       .  S
O670        C677   1.280       .  A
O670       Co673   1.953       .  S
Co671       O947   1.936       .  S
Co671       O971   2.151       .  S
Co672       O963   1.943   1_554  S
Co672      O1859   2.209   1_455  S
Co673      O1842   2.085   1_455  S
Co673      O1849   1.983   1_554  S
Co673      O1859   2.023   1_455  S
Co674      O1850   2.074       .  S
Co674       O971   2.116       .  S
O675       Co967   2.151   1_554  S
O675      Co1856   2.209       .  S
O675      Co1857   2.023       .  S
O675       Co970   2.116   1_554  S
C676        C849   1.446       .  S
C677        C860   1.434       .  S
C678        O961   1.244       .  A
C678        C887   1.479       .  S
C679        C855   1.457       .  S
O680        C688   1.260       .  A
O680       Co700   1.976       .  S
O681        C689   1.250       .  A
O681       Co701   2.005       .  S
O682        C690   1.249   1_655  A
O682       Co702   1.965   1_655  S
O683        C691   1.262       .  A
O683       Co703   1.995       .  S
O684        C690   1.259       .  A
O684       Co701   2.014       .  S
O685        C691   1.261       .  A
O685       Co700   1.955       .  S
O686       C1873   1.236       .  A
O686       Co703   1.949       .  S
O687        C688   1.263       .  A
O687      Co1886   2.010       .  S
C688        C841   1.434       .  S
C689       O1870   1.236   1_455  A
C689        C869   1.429       .  S
C690        C850   1.445   1_455  S
C691        C846   1.411       .  S
O692        C705   1.262       .  A
O692       Co700   2.017       .  S
O693        C706   1.297       .  A
O693       Co701   2.082       .  S
O694        C707   1.252       .  A
O694      Co1886   1.986       .  S
O695        C708   1.266       .  A
O695      Co1887   1.886       .  S
O696        C708   1.301       .  A
O696       Co701   2.076       .  S
O697        C707   1.264       .  A
O697       Co700   2.016       .  S
O698        C705   1.251       .  A
O698       Co703   1.972       .  S
O699        C706   1.262       .  A
O699       Co702   1.885       .  S
Co700       O704   2.110       .  S
Co701      O1888   2.260   1_455  S
Co702      O1871   2.010   1_455  S
Co702      O1878   1.986       .  S
Co702      O1888   1.927   1_455  S
Co703      O1879   1.886       .  S
Co703       O704   1.918       .  S
O704      Co1885   2.260       .  S
O704      Co1886   1.927       .  S
C705        C851   1.437       .  S
C706        C848   1.421       .  S
C707        C871   1.434       .  S
C708        C844   1.426       .  S
O709        C717   1.262       .  A
O709       Co729   2.008       .  S
O710        C718   1.272   1_556  A
O710      Co1026   1.908       .  S
O711        C719   1.266       .  A
O711       Co731   2.016   1_565  S
O712        C720   1.299       .  A
O712       Co732   2.065       .  S
O713        C719   1.270       .  A
O713       Co730   2.000       .  S
O714        C720   1.274       .  A
O714       Co729   1.897       .  S
O715        C718   1.294       .  A
O716      Co1027   2.033       .  S
C717        C884   1.464       .  S
C718        C838   1.448       .  S
C719        C856   1.459       .  S
C720        C835   1.429       .  S
O721        C734   1.255       .  A
O721       Co729   2.004       .  S
O722        C735   1.263       .  A
O722       Co730   1.992       .  S
O723        C736   1.258       .  A
O724      Co1028   2.002       .  S
O725        C737   1.240       .  A
O725       Co730   1.965       .  S
O726        C736   1.272       .  A
O726      Co1025   2.017       .  S
O727        C734   1.247       .  A
O727       Co732   1.998       .  S
O728        C735   1.265   1_545  A
O728       Co731   1.980       .  S
Co729      O1022   2.017       .  S
Co730      O1006   1.908       .  S
Co730      O1029   1.947   1_565  S
Co731      O1012   2.033       .  S
Co731      O1029   2.089       .  S
Co732      O1020   2.002       .  S
O733      Co1026   1.947   1_545  S
O733      Co1027   2.089       .  S
C734        C854   1.459       .  S
C735        C833   1.425       .  S
C736        C840   1.437       .  S
C737        C881   1.435       .  S
O738        C746   1.256       .  A
O738       Co758   2.019       .  S
O739        C747   1.253       .  A
O739       Co759   1.957       .  S
O740        C748   1.274       .  A
O740       Co760   2.025   1_565  S
O741        C749   1.248       .  A
O741       Co761   1.970       .  S
O742        C748   1.258       .  A
O742       Co759   1.946       .  S
O743        C749   1.249       .  A
O743       Co758   1.967       .  S
O744        C747   1.266       .  A
O745       Co760   1.955   1_565  S
C746        C867   1.437       .  S
C747        C830   1.432       .  S
C748        C843   1.423       .  S
C749        C834   1.422       .  S
O750        C763   1.293       .  A
O750       Co758   2.068       .  S
O751        C764   1.261   1_565  A
O751       Co759   1.999       .  S
O752        C765   1.279       .  A
O753       Co761   1.982       .  S
O754        C766   1.263   1_565  A
O754       Co759   2.009       .  S
O755        C765   1.277       .  A
O755       Co758   1.998       .  S
O756        C763   1.269       .  A
O756       Co761   1.907       .  S
O757        C764   1.254       .  A
O757       Co760   1.988       .  S
Co759       O762   2.083       .  S
Co760       O762   1.964   1_545  S
C763        C842   1.433       .  S
C764        C836   1.428       .  S
C765        C831   1.435       .  S
C766        C866   1.428       .  S
O767        C775   1.233       .  A
O767      Co1083   1.936   1_554  S
O768        C776   1.255       .  A
O768       Co788   2.048       .  S
O769        C777   1.264       .  A
O769       Co789   2.004       .  S
O770        C778   1.289       .  A
O770       Co790   2.037       .  S
O771        C777   1.254       .  A
O771       Co788   1.976       .  S
O772        C778   1.241       .  A
O772       Co787   1.892       .  S
O773       C1072   1.228       .  A
O773       Co790   1.948       .  S
O774        C775   1.262       .  A
O774       Co789   2.054       .  S
C775        C880   1.439   1_554  S
C776       O1069   1.228       .  A
C776        C837   1.442       .  S
C777        C827   1.450       .  S
C778        C859   1.435       .  S
O779        C792   1.258       .  A
O779       Co787   1.999       .  S
O780        C793   1.295       .  A
O780       Co788   2.084       .  S
O781       C1090   1.245       .  A
O781       Co789   1.990   1_556  S
O782        C795   1.286       .  A
O782       Co790   1.967       .  S
O783        C795   1.275       .  A
O783      Co1084   1.991       .  S
O784        C794   1.262       .  A
O784       Co787   2.030       .  S
O785        C792   1.256       .  A
O785       Co790   2.008       .  S
O786        C793   1.267       .  A
O786       Co789   1.918       .  S
Co787      O1063   1.936       .  S
Co787      O1087   2.116       .  S
Co788      O1079   1.991   1_554  S
Co788       O791   2.250       .  S
Co789       O791   1.952       .  S
Co790      O1087   1.933       .  S
O791      Co1083   2.116   1_554  S
O791      Co1086   1.933   1_554  S
C792        C825   1.448       .  S
C793        C858   1.448       .  S
C794       O1077   1.245       .  A
C794        C839   1.432       .  S
C795        C877   1.443       .  S
O796        C804   1.262       .  A
O796       Co816   1.998       .  S
O797        C805   1.277       .  A
O797       Co817   2.004       .  S
O798        C806   1.267       .  A
O798       Co818   1.898       .  S
O799        C807   1.270       .  A
O799       Co819   2.024       .  S
O800        C806   1.292       .  A
O800       Co817   2.056       .  S
O801        C807   1.256       .  A
O801       Co816   1.984       .  S
O802        C805   1.278       .  A
O802       Co819   1.955       .  S
O803        C804   1.255       .  A
O803       Co818   1.981       .  S
C804        C864   1.411       .  S
C805        C829   1.435       .  S
C806        C847   1.421       .  S
C807        C828   1.448       .  S
O808        C821   1.269       .  A
O808       Co816   1.963       .  S
O809        C822   1.251       .  A
O809       Co817   1.990       .  S
O810        C823   1.263       .  A
O810       Co818   2.011       .  S
O811        C824   1.246       .  A
O811       Co819   1.968       .  S
O812        C824   1.251       .  A
O812       Co817   1.992       .  S
O813        C823   1.259       .  A
O813       Co816   1.961       .  S
O814        C821   1.269       .  A
O814       Co819   1.996       .  S
O815        C822   1.253       .  A
O815       Co818   1.989       .  S
Co816       O820   2.084       .  S
Co817       O820   2.239       .  S
Co818       O820   1.946       .  S
Co819       O820   1.994       .  S
C821        C845   1.412       .  S
C822        C826   1.446       .  S
C823        C832   1.437       .  S
C824        C862   1.431       .  S
C825        C826   1.213       .  T
C827        C828   1.216       .  T
C829        C830   1.205       .  T
C831        C832   1.208       .  T
C837        C838   1.214       .  T
C839        C840   1.206       .  T
C841        C842   1.205       .  T
C843        C844   1.201       .  T
C845        C846   1.191       .  T
C847        C848   1.198       .  T
C849       C2034   1.212       .  T
C850       C2033   1.212       .  T
C851       C2036   1.208       .  T
C852       C2035   1.208       .  T
C853        C854   1.220       .  T
C855        C856   1.221       .  T
C857       C1154   1.214       .  T
C858       C1153   1.214   1_554  T
C859       C1156   1.215       .  T
C860       C1155   1.215       .  T
C861        C862   1.204       .  T
C863        C864   1.194       .  T
C865        C866   1.204       .  T
C867        C868   1.208       .  T
C869        C870   1.205       .  T
C871        C872   1.206       .  T
C875        C876   1.206       .  T
C877       C1174   1.213       .  T
C878       C1173   1.213       .  T
C879       C1176   1.212       .  T
C880       C1175   1.212       .  T
C881        C882   1.205   1_565  T
C883        C884   1.223       .  T
C885       C2366   1.217   1_554  T
C886       C2365   1.217       .  T
C887       C2368   1.232       .  T
C888       C2367   1.232   1_554  T
O889        C897   1.265       .  A
O889       Co909   2.104       .  S
O890        C898   1.235       .  A
O891        C899   1.247       .  A
O891       Co911   1.951       .  S
O892        C900   1.252       .  A
O892       Co912   1.960       .  S
O893       Co910   2.011       .  S
O894       Co909   2.000       .  S
O895        C898   1.279       .  A
O895      Co2096   2.081       .  S
O896       C1785   1.229       .  A
O896       Co911   1.935   1_554  S
C897       O1784   1.229   1_455  A
C897       C1184   1.474       .  S
C898       C1174   1.438       .  S
O901       Co909   1.938       .  S
O902       Co910   1.969       .  S
O903        C916   1.278       .  A
O903      Co2095   2.081       .  S
O904       C1805   1.221   1_455  A
O904       Co912   1.928   1_455  S
O905        C917   1.252       .  A
O905       Co910   2.061       .  S
O906        C916   1.238       .  A
O907        C914   1.282   1_565  A
O907       Co912   2.069   1_455  S
O908        C915   1.261       .  A
O908       Co911   1.994       .  S
Co909       O913   2.042   1_455  S
Co910      O1209   2.158   1_565  S
Co911      O2087   2.081       .  S
Co911      O1801   2.099       .  S
Co912      O2079   2.081       .  S
O913      Co1206   2.158       .  S
O913      Co1799   2.099   1_655  S
C915       C1170   1.429       .  S
C916       C1175   1.440       .  S
C917       O1792   1.221       .  A
C917       C1182   1.449       .  S
O918        C926   1.258   1_455  A
O918       Co938   1.948       .  S
O919        C927   1.242       .  A
O920        C928   1.295   1_565  A
O920       Co940   2.070       .  S
O921        C929   1.274       .  A
O921       Co941   1.999       .  S
O922        C928   1.279       .  A
O922       Co939   1.910       .  S
O923        C929   1.259       .  A
O923       Co938   1.957       .  S
O924       C2111   1.253       .  A
O924       Co941   2.008       .  S
O925       C1518   1.275       .  A
O925       Co940   2.018       .  S
C926       O1517   1.275       .  A
C926       C1172   1.432       .  S
C927       O2108   1.253       .  A
C927       C1168   1.436       .  S
C928       C1161   1.434       .  S
C929       C1159   1.417       .  S
O930        C943   1.272       .  A
O930       Co938   2.007       .  S
O931        C944   1.296       .  A
O931       Co939   2.091   1_565  S
O932       C2129   1.244       .  A
O932       Co940   1.971       .  S
O933       C1538   1.272       .  A
O933       Co941   1.847       .  S
O934        C946   1.313       .  A
O934       Co939   2.125       .  S
O935        C945   1.265       .  A
O936        C943   1.267       .  A
O936       Co941   1.984       .  S
O937        C944   1.266       .  A
O937       Co940   1.894       .  S
Co938       O942   2.019       .  S
Co939      O1534   2.026       .  S
Co940      O1534   1.964   1_565  S
Co941       O942   1.903       .  S
O942      Co1531   2.026   1_455  S
O942      Co1532   1.964   1_455  S
C943       C1164   1.439       .  S
C944       C1157   1.431       .  S
C945       O2116   1.244   1_455  A
C945       C1166   1.431       .  S
C946       O1525   1.272       .  A
C946       C1169   1.429       .  S
O947        C955   1.244       .  A
O948        C956   1.251       .  A
O948       Co968   2.049       .  S
O949        C957   1.245   1_655  A
O949       Co969   1.941   1_655  S
O950        C958   1.235       .  A
O950       Co970   1.930       .  S
O951        C957   1.263       .  A
O951       Co968   2.016       .  S
O952        C958   1.264       .  A
O952       Co967   2.019       .  S
O953       C1844   1.230       .  A
O953       Co970   1.933   1_554  S
O954        C955   1.283       .  A
O954      Co2153   2.085       .  S
C955       C1149   1.449       .  S
C956       O1841   1.230   1_455  A
C956       C1181   1.451       .  S
C957       C1148   1.435       .  S
C958       C1153   1.444       .  S
O959        C972   1.259       .  A
O959       Co967   1.962       .  S
O960        C973   1.263       .  A
O960       Co968   1.977       .  S
O961      Co2153   1.983       .  S
O962        C975   1.273       .  A
O962      Co2154   2.074   1_455  S
O963        C975   1.244       .  A
O964        C974   1.256       .  A
O964       Co967   2.051       .  S
O965        C972   1.272       .  A
O965       Co970   2.030       .  S
O966        C973   1.280       .  A
O966       Co969   1.953       .  S
Co968      O2155   2.209   1_455  S
Co969      O2138   2.085   1_455  S
Co969      O2145   1.983       .  S
Co969      O2155   2.023   1_455  S
Co970      O2146   2.074       .  S
O971      Co2152   2.209       .  S
O971      Co2153   2.023       .  S
C972       C1145   1.446       .  S
C973       C1156   1.434       .  S
C974       C1183   1.479       .  S
C975       C1151   1.457       .  S
O976        C984   1.260       .  A
O976       Co996   1.976       .  S
O977        C985   1.250       .  A
O977       Co997   2.005       .  S
O978        C986   1.249   1_655  A
O978       Co998   1.965   1_655  S
O979        C987   1.262       .  A
O979       Co999   1.995       .  S
O980        C986   1.259       .  A
O980       Co997   2.014       .  S
O981        C987   1.261       .  A
O981       Co996   1.955       .  S
O982       C2169   1.236       .  A
O982       Co999   1.949       .  S
O983        C984   1.263       .  A
O983      Co2182   2.010       .  S
C984       C1137   1.434       .  S
C985       O2166   1.236   1_455  A
C985       C1165   1.429       .  S
C986       C1146   1.445   1_455  S
C987       C1142   1.411       .  S
O988       C1001   1.262       .  A
O988       Co996   2.017       .  S
O989       C1002   1.297       .  A
O989       Co997   2.082       .  S
O990       C1003   1.252       .  A
O990      Co2182   1.986       .  S
O991       C1004   1.266       .  A
O991      Co2183   1.886       .  S
O992       C1004   1.301       .  A
O992       Co997   2.076       .  S
O993       C1003   1.264       .  A
O993       Co996   2.016       .  S
O994       C1001   1.251       .  A
O994       Co999   1.972       .  S
O995       C1002   1.262       .  A
O995       Co998   1.885       .  S
Co996      O1000   2.110       .  S
Co997      O2184   2.260   1_455  S
Co998      O2167   2.010   1_455  S
Co998      O2174   1.986       .  S
Co998      O2184   1.927   1_455  S
Co999      O2175   1.886       .  S
Co999      O1000   1.918       .  S
O1000     Co2181   2.260       .  S
O1000     Co2182   1.927       .  S
C1001      C1147   1.437       .  S
C1002      C1144   1.421       .  S
C1003      C1167   1.434       .  S
C1004      C1140   1.426       .  S
O1005      C1013   1.262       .  A
O1005     Co1025   2.008       .  S
O1006      C1014   1.272       .  A
O1007      C1015   1.266       .  A
O1007     Co1027   2.016   1_565  S
O1008      C1016   1.299       .  A
O1008     Co1028   2.065       .  S
O1009      C1015   1.270   1_554  A
O1009     Co1026   2.000   1_554  S
O1010      C1016   1.274       .  A
O1010     Co1025   1.897       .  S
O1011      C1014   1.294       .  A
C1013      C1180   1.464       .  S
C1014      C1134   1.448       .  S
C1015      C1152   1.459       .  S
C1016      C1131   1.429       .  S
O1017      C1030   1.255       .  A
O1017     Co1025   2.004       .  S
O1018      C1031   1.263       .  A
O1018     Co1026   1.992       .  S
O1019      C1032   1.258       .  A
O1021      C1033   1.240       .  A
O1021     Co1026   1.965       .  S
O1022      C1032   1.272   1_554  A
O1023      C1030   1.247       .  A
O1023     Co1028   1.998       .  S
O1024      C1031   1.265   1_545  A
O1024     Co1027   1.980       .  S
C1030      C1150   1.459       .  S
C1031      C1129   1.425       .  S
C1032      C1136   1.437       .  S
C1033      C1177   1.435       .  S
O1034      C1042   1.256       .  A
O1034     Co1054   2.019       .  S
O1035      C1043   1.253       .  A
O1035     Co1055   1.957       .  S
O1036      C1044   1.274       .  A
O1036     Co1056   2.025   1_565  S
O1037      C1045   1.248       .  A
O1037     Co1057   1.970       .  S
O1038      C1044   1.258       .  A
O1038     Co1055   1.946       .  S
O1039      C1045   1.249       .  A
O1039     Co1054   1.967       .  S
O1040      C1043   1.266       .  A
O1041     Co1056   1.955   1_565  S
C1042      C1163   1.437       .  S
C1043      C1126   1.432       .  S
C1044      C1139   1.423       .  S
C1045      C1130   1.422       .  S
O1046      C1059   1.293       .  A
O1046     Co1054   2.068       .  S
O1047      C1060   1.261   1_565  A
O1047     Co1055   1.999       .  S
O1048      C1061   1.279       .  A
O1049     Co1057   1.982       .  S
O1050      C1062   1.263   1_565  A
O1050     Co1055   2.009       .  S
O1051      C1061   1.277       .  A
O1051     Co1054   1.998       .  S
O1052      C1059   1.269       .  A
O1052     Co1057   1.907       .  S
O1053      C1060   1.254       .  A
O1053     Co1056   1.988       .  S
Co1055     O1058   2.083       .  S
Co1056     O1058   1.964   1_545  S
C1059      C1138   1.433       .  S
C1060      C1132   1.428       .  S
C1061      C1127   1.435       .  S
C1062      C1162   1.428       .  S
O1063      C1071   1.233       .  A
O1064      C1072   1.255       .  A
O1064     Co1084   2.048       .  S
O1065      C1073   1.264       .  A
O1065     Co1085   2.004       .  S
O1066      C1074   1.289       .  A
O1066     Co1086   2.037       .  S
O1067      C1073   1.254       .  A
O1067     Co1084   1.976       .  S
O1068      C1074   1.241       .  A
O1068     Co1083   1.892       .  S
O1069     Co1086   1.948   1_554  S
O1070      C1071   1.262       .  A
O1070     Co1085   2.054       .  S
C1071      C1176   1.439       .  S
C1072      C1133   1.442       .  S
C1073      C1123   1.450       .  S
C1074      C1155   1.435   1_556  S
O1075      C1088   1.258       .  A
O1075     Co1083   1.999       .  S
O1076      C1089   1.295       .  A
O1076     Co1084   2.084       .  S
O1077     Co1085   1.990       .  S
O1078      C1091   1.286       .  A
O1078     Co1086   1.967       .  S
O1079      C1091   1.275       .  A
O1080      C1090   1.262       .  A
O1080     Co1083   2.030       .  S
O1081      C1088   1.256       .  A
O1081     Co1086   2.008       .  S
O1082      C1089   1.267       .  A
O1082     Co1085   1.918       .  S
Co1084     O1087   2.250       .  S
Co1085     O1087   1.952       .  S
C1088      C1121   1.448       .  S
C1089      C1154   1.448       .  S
C1090      C1135   1.432       .  S
C1091      C1173   1.443       .  S
O1092      C1100   1.262       .  A
O1092     Co1112   1.998       .  S
O1093      C1101   1.277       .  A
O1093     Co1113   2.004       .  S
O1094      C1102   1.267       .  A
O1094     Co1114   1.898       .  S
O1095      C1103   1.270       .  A
O1095     Co1115   2.024       .  S
O1096      C1102   1.292       .  A
O1096     Co1113   2.056       .  S
O1097      C1103   1.256       .  A
O1097     Co1112   1.984       .  S
O1098      C1101   1.278       .  A
O1098     Co1115   1.955       .  S
O1099      C1100   1.255       .  A
O1099     Co1114   1.981       .  S
C1100      C1160   1.411       .  S
C1101      C1125   1.435       .  S
C1102      C1143   1.421       .  S
C1103      C1124   1.448       .  S
O1104      C1117   1.269       .  A
O1104     Co1112   1.963       .  S
O1105      C1118   1.251       .  A
O1105     Co1113   1.990       .  S
O1106      C1119   1.263       .  A
O1106     Co1114   2.011       .  S
O1107      C1120   1.246       .  A
O1107     Co1115   1.968       .  S
O1108      C1120   1.251       .  A
O1108     Co1113   1.992       .  S
O1109      C1119   1.259       .  A
O1109     Co1112   1.961       .  S
O1110      C1117   1.269       .  A
O1110     Co1115   1.996       .  S
O1111      C1118   1.253       .  A
O1111     Co1114   1.989       .  S
Co1112     O1116   2.084       .  S
Co1113     O1116   2.239       .  S
Co1114     O1116   1.946       .  S
Co1115     O1116   1.994       .  S
C1117      C1141   1.412       .  S
C1118      C1122   1.446       .  S
C1119      C1128   1.437       .  S
C1120      C1158   1.431       .  S
C1121      C1122   1.213       .  T
C1123      C1124   1.216       .  T
C1125      C1126   1.205       .  T
C1127      C1128   1.208       .  T
C1133      C1134   1.214       .  T
C1135      C1136   1.206       .  T
C1137      C1138   1.205       .  T
C1139      C1140   1.201       .  T
C1141      C1142   1.191       .  T
C1143      C1144   1.198       .  T
C1145      C2330   1.212       .  T
C1146      C2329   1.212       .  T
C1147      C2332   1.208       .  T
C1148      C2331   1.208       .  T
C1149      C1150   1.220       .  T
C1151      C1152   1.221       .  T
C1157      C1158   1.204       .  T
C1159      C1160   1.194       .  T
C1161      C1162   1.204       .  T
C1163      C1164   1.208       .  T
C1165      C1166   1.205       .  T
C1167      C1168   1.206       .  T
C1171      C1172   1.206       .  T
C1177      C1178   1.205   1_565  T
C1179      C1180   1.223       .  T
C1181      C2070   1.217       .  T
C1182      C2069   1.217   1_556  T
C1183      C2072   1.232   1_556  T
C1184      C2071   1.232       .  T
O1185      C1193   1.265       .  A
O1185     Co1205   2.104       .  S
O1186      C1194   1.235   1_556  A
O1186     Co1502   1.915       .  S
O1187      C1195   1.247       .  A
O1187     Co1207   1.951   1_655  S
O1188      C1196   1.252       .  A
O1188     Co1208   1.960       .  S
O1189      C1787   1.261       .  A
O1189     Co1206   2.011       .  S
O1190      C1788   1.264   1_545  A
O1190     Co1205   2.000       .  S
O1191      C1194   1.279       .  A
O1192     Co1207   1.935   1_655  S
C1193      C1480   1.474       .  S
C1194      C1470   1.438   1_554  S
C1195      O1781   1.261   1_545  A
C1195      C2066   1.432       .  S
C1196      O1782   1.264       .  A
C1196      C2059   1.433       .  S
O1197      C1802   1.262       .  A
O1197     Co1205   1.938       .  S
O1198      C1803   1.261       .  A
O1198     Co1206   1.969   1_455  S
O1199      C1212   1.278       .  A
O1200     Co1208   1.928   1_556  S
O1201      C1213   1.252       .  A
O1201     Co1206   2.061       .  S
O1202      C1212   1.238       .  A
O1202     Co1501   1.950       .  S
O1203      C1210   1.282       .  A
O1203     Co1208   2.069       .  S
O1204      C1211   1.261   1_655  A
O1204     Co1207   1.994   1_655  S
Co1205     O1498   1.950   1_554  S
Co1205     O1209   2.042   1_554  S
Co1206     O1482   1.915       .  S
Co1208     O1801   2.155   1_554  S
O1209     Co1800   2.155   1_546  S
C1210      O1789   1.262       .  A
C1210      C2067   1.461       .  S
C1211      O1790   1.261   1_545  A
C1211      C1466   1.429       .  S
C1212      C1471   1.440       .  S
C1213      C1478   1.449   1_655  S
O1214      C1222   1.258   1_545  A
O1214     Co1234   1.948       .  S
O1215      C1223   1.242   1_655  A
O1215     Co1827   1.982       .  S
O1216      C1224   1.295       .  A
O1216     Co1236   2.070       .  S
O1217      C1225   1.274       .  A
O1217     Co1237   1.999       .  S
O1218      C1224   1.279       .  A
O1218     Co1235   1.910       .  S
O1219      C1225   1.259       .  A
O1219     Co1234   1.957       .  S
O1220     Co1237   2.008       .  S
O1221     Co1236   2.018       .  S
C1222      C1468   1.432       .  S
C1223      C1464   1.436       .  S
C1224      C1457   1.434       .  S
C1225      C1455   1.417       .  S
O1226      C1239   1.272   1_545  A
O1226     Co1234   2.007       .  S
O1227      C1240   1.296       .  A
O1227     Co1235   2.091       .  S
O1228     Co1236   1.971       .  S
O1229     Co1237   1.847       .  S
O1230      C1242   1.313   1_655  A
O1230     Co1235   2.125       .  S
O1231      C1241   1.265       .  A
O1231     Co1826   2.012       .  S
O1232      C1239   1.267       .  A
O1232     Co1237   1.984   1_565  S
O1233      C1240   1.266       .  A
O1233     Co1236   1.894       .  S
Co1234     O1823   2.012   1_545  S
Co1234     O1238   2.019       .  S
Co1235     O1807   1.982       .  S
Co1237     O1238   1.903       .  S
C1239      C1460   1.439       .  S
C1240      C1453   1.431       .  S
C1241      C1462   1.431       .  S
C1242      C1465   1.429       .  S
O1243      C1251   1.244       .  A
O1243     Co1559   1.936   1_554  S
O1244      C1252   1.251       .  A
O1244     Co1264   2.049       .  S
O1245      C1253   1.245       .  A
O1245     Co1265   1.941       .  S
O1246      C1254   1.235       .  A
O1246     Co1266   1.930       .  S
O1247      C1253   1.263       .  A
O1247     Co1264   2.016       .  S
O1248      C1254   1.264       .  A
O1248     Co1263   2.019       .  S
O1249     Co1266   1.933       .  S
O1250      C1251   1.283       .  A
C1251      C1445   1.449       .  S
C1252      C1477   1.451       .  S
C1253      C1444   1.435       .  S
C1254      C1449   1.444       .  S
O1255      C1268   1.259       .  A
O1255     Co1263   1.962       .  S
O1256      C1269   1.263       .  A
O1256     Co1264   1.977       .  S
O1257      C1566   1.244       .  A
O1258      C1271   1.273       .  A
O1259      C1271   1.244       .  A
O1259     Co1560   1.943       .  S
O1260      C1270   1.256   1_655  A
O1260     Co1263   2.051       .  S
O1261      C1268   1.272       .  A
O1261     Co1266   2.030       .  S
O1262      C1269   1.280       .  A
O1262     Co1265   1.953       .  S
Co1263     O1539   1.936       .  S
Co1263     O1563   2.151       .  S
Co1264     O1555   1.943   1_554  S
Co1266     O1563   2.116       .  S
O1267     Co1559   2.151   1_554  S
O1267     Co1562   2.116   1_554  S
C1268      C1441   1.446       .  S
C1269      C1452   1.434       .  S
C1270      O1553   1.244       .  A
C1270      C1479   1.479       .  S
C1271      C1447   1.457       .  S
O1272      C1280   1.260       .  A
O1272     Co1292   1.976       .  S
O1273      C1281   1.250       .  A
O1273     Co1293   2.005       .  S
O1274      C1282   1.249       .  A
O1274     Co1294   1.965       .  S
O1275      C1283   1.262       .  A
O1275     Co1295   1.996   1_655  S
O1276      C1282   1.259       .  A
O1276     Co1293   2.014       .  S
O1277      C1283   1.261       .  A
O1277     Co1292   1.955       .  S
O1278     Co1295   1.949   1_655  S
O1279      C1280   1.263       .  A
C1280      C1433   1.434       .  S
C1281      C1461   1.429       .  S
C1282      C1442   1.445       .  S
C1283      C1438   1.411       .  S
O1284      C1297   1.262       .  A
O1284     Co1292   2.017       .  S
O1285      C1298   1.297       .  A
O1285     Co1293   2.082       .  S
O1286      C1299   1.252       .  A
O1287      C1300   1.266       .  A
O1288      C1300   1.301       .  A
O1288     Co1293   2.076       .  S
O1289      C1299   1.264   1_655  A
O1289     Co1292   2.016       .  S
O1290      C1297   1.251   1_455  A
O1290     Co1295   1.972       .  S
O1291      C1298   1.262       .  A
O1291     Co1294   1.885       .  S
Co1292     O1296   2.110       .  S
Co1295     O1296   1.918   1_455  S
C1297      C1443   1.437   1_655  S
C1298      C1440   1.421       .  S
C1299      C1463   1.434       .  S
C1300      C1436   1.426       .  S
O1301      C1309   1.262       .  A
O1301     Co1321   2.008       .  S
O1302      C1310   1.272   1_556  A
O1302     Co1618   1.908       .  S
O1303      C1311   1.266       .  A
O1303     Co1323   2.016       .  S
O1304      C1312   1.299   1_565  A
O1304     Co1324   2.065       .  S
O1305      C1311   1.270       .  A
O1305     Co1322   2.000       .  S
O1306      C1312   1.274       .  A
O1306     Co1321   1.897       .  S
O1307      C1310   1.294       .  A
O1307     Co1916   2.065       .  S
O1308      C1901   1.270   1_556  A
O1308     Co1619   2.033       .  S
C1309      O1900   1.270   1_554  A
C1309      C1476   1.464       .  S
C1310      C1430   1.448       .  S
C1311      C1448   1.459       .  S
C1312      C1427   1.429       .  S
O1313      C1326   1.255       .  A
O1313     Co1321   2.004       .  S
O1314      C1327   1.263       .  A
O1314     Co1322   1.992       .  S
O1315      C1328   1.258       .  A
O1315     Co1915   1.972       .  S
O1316      C1921   1.253       .  A
O1316     Co1620   2.002       .  S
O1317      C1329   1.240       .  A
O1317     Co1322   1.965       .  S
O1318      C1328   1.272       .  A
O1318     Co1617   2.017       .  S
O1319      C1326   1.247       .  A
O1319     Co1324   1.998   1_545  S
O1320      C1327   1.265       .  A
O1320     Co1323   1.980       .  S
Co1321     O1614   2.017       .  S
Co1321     O1917   1.936   1_554  S
Co1322     O1598   1.908       .  S
Co1322     O1621   1.947       .  S
Co1323     O1604   2.033       .  S
Co1323     O1907   1.972       .  S
Co1323     O1621   2.089       .  S
Co1324     O1899   2.065       .  S
Co1324     O1612   2.002       .  S
Co1324     O1917   2.264   1_564  S
O1325     Co1913   1.936   1_556  S
O1325     Co1618   1.947       .  S
O1325     Co1619   2.089       .  S
O1325     Co1916   2.264   1_556  S
C1326      C1446   1.459       .  S
C1327      C1425   1.425       .  S
C1328      C1432   1.437       .  S
C1329      O1908   1.253       .  A
C1329      C1473   1.435       .  S
O1330      C1338   1.256   1_545  A
O1330     Co1350   2.019       .  S
O1331      C1339   1.253       .  A
O1331     Co1351   1.957       .  S
O1332      C1340   1.274       .  A
O1332     Co1352   2.025       .  S
O1333      C1341   1.248       .  A
O1333     Co1353   1.970       .  S
O1334      C1340   1.258       .  A
O1334     Co1351   1.946       .  S
O1335      C1341   1.249   1_545  A
O1335     Co1350   1.967       .  S
O1336      C1339   1.266       .  A
O1336     Co1945   2.026       .  S
O1337      C1930   1.240       .  A
O1337     Co1352   1.955       .  S
C1338      O1929   1.240       .  A
C1338      C1459   1.437       .  S
C1339      C1422   1.432       .  S
C1340      C1435   1.423       .  S
C1341      C1426   1.422       .  S
O1342      C1355   1.293       .  A
O1342     Co1350   2.068       .  S
O1343      C1356   1.261       .  A
O1343     Co1351   1.999       .  S
O1344      C1357   1.279       .  A
O1344     Co1944   1.953       .  S
O1345      C1950   1.255       .  A
O1345     Co1353   1.982   1_545  S
O1346      C1358   1.263       .  A
O1346     Co1351   2.009       .  S
O1347      C1357   1.277       .  A
O1347     Co1350   1.998       .  S
O1348      C1355   1.269       .  A
O1348     Co1353   1.907   1_545  S
O1349      C1356   1.254       .  A
O1349     Co1352   1.988       .  S
Co1350     O1946   2.238   1_545  S
Co1351     O1354   2.083       .  S
Co1352     O1936   1.953       .  S
Co1352     O1354   1.964       .  S
Co1353     O1928   2.026       .  S
Co1353     O1946   1.950       .  S
O1354     Co1942   2.238       .  S
O1354     Co1945   1.950       .  S
C1355      C1434   1.434       .  S
C1356      C1428   1.428       .  S
C1357      C1423   1.435       .  S
C1358      O1937   1.255       .  A
C1358      C1458   1.428       .  S
O1359      C1367   1.233       .  A
O1359     Co1675   1.936   1_554  S
O1360      C1368   1.255       .  A
O1360     Co1380   2.048       .  S
O1361      C1369   1.264       .  A
O1361     Co1381   2.004       .  S
O1362      C1370   1.289       .  A
O1362     Co1382   2.037       .  S
O1363      C1369   1.254       .  A
O1363     Co1380   1.976       .  S
O1364      C1370   1.241       .  A
O1364     Co1379   1.892       .  S
O1365      C1664   1.228       .  A
O1365     Co1382   1.948       .  S
O1366      C1367   1.262       .  A
O1366     Co1381   2.054       .  S
C1367      C1472   1.439   1_554  S
C1368      O1661   1.228       .  A
C1368      C1429   1.442       .  S
C1369      C1419   1.450       .  S
C1370      C1451   1.435       .  S
O1371      C1384   1.258       .  A
O1371     Co1379   1.999       .  S
O1372      C1385   1.295       .  A
O1372     Co1380   2.084       .  S
O1373      C1682   1.245       .  A
O1373     Co1381   1.990   1_556  S
O1374      C1387   1.286       .  A
O1374     Co1382   1.967       .  S
O1375      C1387   1.276       .  A
O1375     Co1676   1.991       .  S
O1376      C1386   1.262       .  A
O1376     Co1379   2.030       .  S
O1377      C1384   1.256       .  A
O1377     Co1382   2.008       .  S
O1378      C1385   1.267       .  A
O1378     Co1381   1.918       .  S
Co1379     O1655   1.936       .  S
Co1379     O1679   2.116       .  S
Co1380     O1671   1.991   1_554  S
Co1380     O1383   2.250       .  S
Co1381     O1383   1.952       .  S
Co1382     O1679   1.933       .  S
O1383     Co1675   2.116   1_554  S
O1383     Co1678   1.933   1_554  S
C1384      C1417   1.448       .  S
C1385      C1450   1.448       .  S
C1386      O1669   1.245       .  A
C1386      C1431   1.432       .  S
C1387      C1469   1.443       .  S
O1388      C1396   1.262       .  A
O1388     Co1408   1.998       .  S
O1389      C1397   1.277       .  A
O1389     Co1409   2.004       .  S
O1390      C1398   1.267       .  A
O1390     Co1410   1.898       .  S
O1391      C1399   1.270       .  A
O1391     Co1411   2.024       .  S
O1392      C1398   1.292       .  A
O1392     Co1409   2.057       .  S
O1393      C1399   1.256       .  A
O1393     Co1408   1.984       .  S
O1394      C1397   1.278       .  A
O1394     Co1411   1.955       .  S
O1395      C1396   1.255       .  A
O1395     Co1410   1.981       .  S
C1396      C1456   1.411       .  S
C1397      C1421   1.435       .  S
C1398      C1439   1.421       .  S
C1399      C1420   1.448       .  S
O1400      C1413   1.269       .  A
O1400     Co1408   1.963       .  S
O1401      C1414   1.251       .  A
O1401     Co1409   1.990       .  S
O1402      C1415   1.263       .  A
O1402     Co1410   2.011       .  S
O1403      C1416   1.246       .  A
O1403     Co1411   1.968       .  S
O1404      C1416   1.251       .  A
O1404     Co1409   1.992       .  S
O1405      C1415   1.259       .  A
O1405     Co1408   1.961       .  S
O1406      C1413   1.269       .  A
O1406     Co1411   1.996       .  S
O1407      C1414   1.253       .  A
O1407     Co1410   1.989       .  S
Co1408     O1412   2.084       .  S
Co1409     O1412   2.239       .  S
Co1410     O1412   1.946       .  S
Co1411     O1412   1.994       .  S
C1413      C1437   1.412       .  S
C1414      C1418   1.446       .  S
C1415      C1424   1.437       .  S
C1416      C1454   1.431       .  S
C1417      C1418   1.213       .  T
C1419      C1420   1.216       .  T
C1421      C1422   1.205       .  T
C1423      C1424   1.208       .  T
C1425      C2018   1.199       .  T
C1426      C2017   1.199       .  T
C1427      C2020   1.202       .  T
C1428      C2019   1.202       .  T
C1429      C1430   1.214       .  T
C1431      C1432   1.206       .  T
C1433      C1434   1.205       .  T
C1435      C1436   1.201       .  T
C1437      C1438   1.191       .  T
C1439      C1440   1.198       .  T
C1445      C1446   1.220       .  T
C1447      C1448   1.221       .  T
C1449      C1746   1.214       .  T
C1450      C1745   1.214   1_554  T
C1451      C1748   1.215       .  T
C1452      C1747   1.215       .  T
C1453      C1454   1.204       .  T
C1455      C1456   1.194       .  T
C1457      C1458   1.204       .  T
C1459      C1460   1.208       .  T
C1461      C1462   1.205       .  T
C1463      C1464   1.206       .  T
C1465      C2058   1.203       .  T
C1466      C2057   1.203       .  T
C1467      C1788   1.433       .  S
C1467      C1468   1.206       .  T
C1469      C1766   1.213       .  T
C1470      C1765   1.213       .  T
C1471      C1768   1.212       .  T
C1472      C1767   1.212       .  T
C1473      C1474   1.205       .  T
C1474      C1787   1.432       .  S
C1475      C1802   1.461       .  S
C1475      C1476   1.223       .  T
O1481      C1489   1.265       .  A
O1481     Co1501   2.104       .  S
O1482      C1490   1.235       .  A
O1483      C1491   1.247       .  A
O1483     Co1503   1.951   1_655  S
O1484      C1492   1.252       .  A
O1484     Co1504   1.960       .  S
O1485      C2083   1.261       .  A
O1485     Co1502   2.011       .  S
O1486      C2084   1.264   1_545  A
O1486     Co1501   2.000       .  S
O1487      C1490   1.279       .  A
O1488     Co1503   1.935   1_654  S
C1489      C1776   1.474       .  S
C1490      C1766   1.438       .  S
C1491      O2077   1.261   1_545  A
C1491      C2362   1.432       .  S
C1492      O2078   1.264       .  A
C1492      C2355   1.433       .  S
O1493      C2098   1.262       .  A
O1493     Co1501   1.938       .  S
O1494      C2099   1.261       .  A
O1494     Co1502   1.969   1_455  S
O1495      C1508   1.278       .  A
O1496     Co1504   1.928       .  S
O1497      C1509   1.252       .  A
O1497     Co1502   2.061       .  S
O1498      C1508   1.238       .  A
O1499      C1506   1.282       .  A
O1499     Co1504   2.069       .  S
O1500      C1507   1.261   1_655  A
O1500     Co1503   1.994   1_655  S
Co1501     O1505   2.042       .  S
Co1504     O2097   2.155       .  S
O1505     Co2096   2.155   1_545  S
C1506      O2085   1.262       .  A
C1506      C2363   1.461       .  S
C1507      O2086   1.261   1_545  A
C1507      C1762   1.429       .  S
C1508      C1767   1.440       .  S
C1509      C1774   1.449   1_655  S
O1510      C1518   1.258   1_545  A
O1510     Co1530   1.948       .  S
O1511      C1519   1.242   1_655  A
O1511     Co2123   1.982       .  S
O1512      C1520   1.295       .  A
O1512     Co1532   2.070       .  S
O1513      C1521   1.274       .  A
O1513     Co1533   1.999       .  S
O1514      C1520   1.279       .  A
O1514     Co1531   1.910       .  S
O1515      C1521   1.259       .  A
O1515     Co1530   1.957       .  S
O1516     Co1533   2.008       .  S
O1517     Co1532   2.018       .  S
C1518      C1764   1.432       .  S
C1519      C1760   1.436       .  S
C1520      C1753   1.434       .  S
C1521      C1751   1.417       .  S
O1522      C1535   1.272   1_545  A
O1522     Co1530   2.007       .  S
O1523      C1536   1.296       .  A
O1523     Co1531   2.091       .  S
O1524     Co1532   1.971       .  S
O1525     Co1533   1.847       .  S
O1526      C1538   1.313   1_655  A
O1526     Co1531   2.125       .  S
O1527      C1537   1.265       .  A
O1527     Co2122   2.012       .  S
O1528      C1535   1.267       .  A
O1528     Co1533   1.984   1_565  S
O1529      C1536   1.266       .  A
O1529     Co1532   1.894       .  S
Co1530     O2119   2.012   1_545  S
Co1530     O1534   2.019       .  S
Co1531     O2103   1.982       .  S
Co1533     O1534   1.903       .  S
C1535      C1756   1.439       .  S
C1536      C1749   1.431       .  S
C1537      C1758   1.431       .  S
C1538      C1761   1.429       .  S
O1539      C1547   1.244       .  A
O1540      C1548   1.251       .  A
O1540     Co1560   2.049       .  S
O1541      C1549   1.245       .  A
O1541     Co1561   1.941       .  S
O1542      C1550   1.235       .  A
O1542     Co1562   1.930       .  S
O1543      C1549   1.263       .  A
O1543     Co1560   2.016       .  S
O1544      C1550   1.264       .  A
O1544     Co1559   2.019       .  S
O1545     Co1562   1.933   1_554  S
O1546      C1547   1.283       .  A
C1547      C1741   1.449       .  S
C1548      C1773   1.451       .  S
C1549      C1740   1.435       .  S
C1550      C1745   1.444       .  S
O1551      C1564   1.259       .  A
O1551     Co1559   1.962       .  S
O1552      C1565   1.263       .  A
O1552     Co1560   1.977       .  S
O1554      C1567   1.273       .  A
O1555      C1567   1.244       .  A
O1556      C1566   1.256   1_655  A
O1556     Co1559   2.051       .  S
O1557      C1564   1.272       .  A
O1557     Co1562   2.030       .  S
O1558      C1565   1.280       .  A
O1558     Co1561   1.953       .  S
C1564      C1737   1.446       .  S
C1565      C1748   1.434       .  S
C1566      C1775   1.479       .  S
C1567      C1743   1.457       .  S
O1568      C1576   1.260       .  A
O1568     Co1588   1.976       .  S
O1569      C1577   1.250       .  A
O1569     Co1589   2.005       .  S
O1570      C1578   1.249       .  A
O1570     Co1590   1.965       .  S
O1571      C1579   1.262       .  A
O1571     Co1591   1.996   1_655  S
O1572      C1578   1.259       .  A
O1572     Co1589   2.014       .  S
O1573      C1579   1.261       .  A
O1573     Co1588   1.955       .  S
O1574     Co1591   1.949   1_655  S
O1575      C1576   1.263       .  A
C1576      C1729   1.434       .  S
C1577      C1757   1.429       .  S
C1578      C1738   1.445       .  S
C1579      C1734   1.411       .  S
O1580      C1593   1.262       .  A
O1580     Co1588   2.017       .  S
O1581      C1594   1.297       .  A
O1581     Co1589   2.082       .  S
O1582      C1595   1.252       .  A
O1583      C1596   1.266       .  A
O1584      C1596   1.301       .  A
O1584     Co1589   2.076       .  S
O1585      C1595   1.264   1_655  A
O1585     Co1588   2.016       .  S
O1586      C1593   1.251   1_455  A
O1586     Co1591   1.972       .  S
O1587      C1594   1.262       .  A
O1587     Co1590   1.885       .  S
Co1588     O1592   2.110       .  S
Co1591     O1592   1.918   1_455  S
C1593      C1739   1.437   1_655  S
C1594      C1736   1.421       .  S
C1595      C1759   1.434       .  S
C1596      C1732   1.426       .  S
O1597      C1605   1.262       .  A
O1597     Co1617   2.008       .  S
O1598      C1606   1.272       .  A
O1599      C1607   1.266       .  A
O1599     Co1619   2.016       .  S
O1600      C1608   1.299   1_565  A
O1600     Co1620   2.065       .  S
O1601      C1607   1.270   1_554  A
O1601     Co1618   2.000   1_554  S
O1602      C1608   1.274       .  A
O1602     Co1617   1.897       .  S
O1603      C1606   1.294       .  A
O1603     Co2212   2.065       .  S
O1604      C2197   1.270       .  A
C1605      O2196   1.270       .  A
C1605      C1772   1.464       .  S
C1606      C1726   1.448       .  S
C1607      C1744   1.459       .  S
C1608      C1723   1.429       .  S
O1609      C1622   1.255       .  A
O1609     Co1617   2.004       .  S
O1610      C1623   1.263       .  A
O1610     Co1618   1.992       .  S
O1611      C1624   1.258       .  A
O1611     Co2211   1.972       .  S
O1612      C2217   1.253   1_554  A
O1613      C1625   1.240       .  A
O1613     Co1618   1.965       .  S
O1614      C1624   1.272   1_554  A
O1615      C1622   1.247       .  A
O1615     Co1620   1.998   1_545  S
O1616      C1623   1.265       .  A
O1616     Co1619   1.980       .  S
Co1617     O2213   1.936       .  S
Co1619     O2203   1.972       .  S
Co1620     O2195   2.065       .  S
Co1620     O2213   2.264   1_565  S
O1621     Co2209   1.936       .  S
O1621     Co2212   2.264       .  S
C1622      C1742   1.459       .  S
C1623      C1721   1.425       .  S
C1624      C1728   1.437       .  S
C1625      O2204   1.253   1_556  A
C1625      C1769   1.435       .  S
O1626      C1634   1.256   1_545  A
O1626     Co1646   2.019       .  S
O1627      C1635   1.253       .  A
O1627     Co1647   1.957       .  S
O1628      C1636   1.274       .  A
O1628     Co1648   2.025       .  S
O1629      C1637   1.248       .  A
O1629     Co1649   1.970       .  S
O1630      C1636   1.258       .  A
O1630     Co1647   1.946       .  S
O1631      C1637   1.249   1_545  A
O1631     Co1646   1.967       .  S
O1632      C1635   1.266       .  A
O1632     Co2241   2.026       .  S
O1633      C2226   1.240       .  A
O1633     Co1648   1.955       .  S
C1634      O2225   1.240       .  A
C1634      C1755   1.437       .  S
C1635      C1718   1.432       .  S
C1636      C1731   1.423       .  S
C1637      C1722   1.422       .  S
O1638      C1651   1.293       .  A
O1638     Co1646   2.068       .  S
O1639      C1652   1.261       .  A
O1639     Co1647   1.999       .  S
O1640      C1653   1.279       .  A
O1640     Co2240   1.953       .  S
O1641      C2246   1.255       .  A
O1641     Co1649   1.982   1_545  S
O1642      C1654   1.263       .  A
O1642     Co1647   2.009       .  S
O1643      C1653   1.277       .  A
O1643     Co1646   1.998       .  S
O1644      C1651   1.269       .  A
O1644     Co1649   1.907   1_545  S
O1645      C1652   1.254       .  A
O1645     Co1648   1.988       .  S
Co1646     O2242   2.238   1_545  S
Co1647     O1650   2.083       .  S
Co1648     O2232   1.953       .  S
Co1648     O1650   1.964       .  S
Co1649     O2224   2.026       .  S
Co1649     O2242   1.950       .  S
O1650     Co2238   2.238       .  S
O1650     Co2241   1.950       .  S
C1651      C1730   1.434       .  S
C1652      C1724   1.428       .  S
C1653      C1719   1.435       .  S
C1654      O2233   1.255       .  A
C1654      C1754   1.428       .  S
O1655      C1663   1.233       .  A
O1656      C1664   1.255       .  A
O1656     Co1676   2.048       .  S
O1657      C1665   1.264       .  A
O1657     Co1677   2.004       .  S
O1658      C1666   1.289       .  A
O1658     Co1678   2.037       .  S
O1659      C1665   1.254       .  A
O1659     Co1676   1.976       .  S
O1660      C1666   1.241       .  A
O1660     Co1675   1.892       .  S
O1661     Co1678   1.948   1_554  S
O1662      C1663   1.262       .  A
O1662     Co1677   2.054       .  S
C1663      C1768   1.439       .  S
C1664      C1725   1.442       .  S
C1665      C1715   1.450       .  S
C1666      C1747   1.435   1_556  S
O1667      C1680   1.258       .  A
O1667     Co1675   1.999       .  S
O1668      C1681   1.295       .  A
O1668     Co1676   2.084       .  S
O1669     Co1677   1.990       .  S
O1670      C1683   1.286       .  A
O1670     Co1678   1.967       .  S
O1671      C1683   1.276       .  A
O1672      C1682   1.262       .  A
O1672     Co1675   2.030       .  S
O1673      C1680   1.256       .  A
O1673     Co1678   2.008       .  S
O1674      C1681   1.267       .  A
O1674     Co1677   1.918       .  S
Co1676     O1679   2.250       .  S
Co1677     O1679   1.952       .  S
C1680      C1713   1.448       .  S
C1681      C1746   1.448       .  S
C1682      C1727   1.432       .  S
C1683      C1765   1.443       .  S
O1684      C1692   1.262       .  A
O1684     Co1704   1.998       .  S
O1685      C1693   1.277       .  A
O1685     Co1705   2.004       .  S
O1686      C1694   1.267       .  A
O1686     Co1706   1.898       .  S
O1687      C1695   1.270       .  A
O1687     Co1707   2.024       .  S
O1688      C1694   1.292       .  A
O1688     Co1705   2.057       .  S
O1689      C1695   1.256       .  A
O1689     Co1704   1.984       .  S
O1690      C1693   1.278       .  A
O1690     Co1707   1.955       .  S
O1691      C1692   1.255       .  A
O1691     Co1706   1.981       .  S
C1692      C1752   1.411       .  S
C1693      C1717   1.435       .  S
C1694      C1735   1.421       .  S
C1695      C1716   1.448       .  S
O1696      C1709   1.269       .  A
O1696     Co1704   1.963       .  S
O1697      C1710   1.251       .  A
O1697     Co1705   1.990       .  S
O1698      C1711   1.263       .  A
O1698     Co1706   2.011       .  S
O1699      C1712   1.246       .  A
O1699     Co1707   1.968       .  S
O1700      C1712   1.251       .  A
O1700     Co1705   1.992       .  S
O1701      C1711   1.259       .  A
O1701     Co1704   1.961       .  S
O1702      C1709   1.269       .  A
O1702     Co1707   1.996       .  S
O1703      C1710   1.253       .  A
O1703     Co1706   1.989       .  S
Co1704     O1708   2.084       .  S
Co1705     O1708   2.239       .  S
Co1706     O1708   1.946       .  S
Co1707     O1708   1.994       .  S
C1709      C1733   1.412       .  S
C1710      C1714   1.446       .  S
C1711      C1720   1.437       .  S
C1712      C1750   1.431       .  S
C1713      C1714   1.213       .  T
C1715      C1716   1.216       .  T
C1717      C1718   1.205       .  T
C1719      C1720   1.208       .  T
C1721      C2314   1.199       .  T
C1722      C2313   1.199       .  T
C1723      C2316   1.202       .  T
C1724      C2315   1.202       .  T
C1725      C1726   1.214       .  T
C1727      C1728   1.206       .  T
C1729      C1730   1.205       .  T
C1731      C1732   1.201       .  T
C1733      C1734   1.191       .  T
C1735      C1736   1.198       .  T
C1741      C1742   1.220       .  T
C1743      C1744   1.221       .  T
C1749      C1750   1.204       .  T
C1751      C1752   1.194       .  T
C1753      C1754   1.204       .  T
C1755      C1756   1.208       .  T
C1757      C1758   1.205       .  T
C1759      C1760   1.206       .  T
C1761      C2354   1.203       .  T
C1762      C2353   1.203       .  T
C1763      C2084   1.433       .  S
C1763      C1764   1.206       .  T
C1769      C1770   1.205       .  T
C1770      C2083   1.432       .  S
C1771      C2098   1.461       .  S
C1771      C1772   1.223       .  T
O1777      C1785   1.265       .  A
O1777     Co1797   2.104       .  S
O1778      C1786   1.235   1_556  A
O1778     Co2094   1.915       .  S
O1779      C1787   1.247       .  A
O1779     Co1799   1.951   1_655  S
O1780      C1788   1.252       .  A
O1780     Co1800   1.960       .  S
O1781     Co1798   2.011       .  S
O1782     Co1797   2.000       .  S
O1783      C1786   1.279       .  A
O1784     Co1799   1.935   1_655  S
C1785      C2072   1.474       .  S
C1786      C2062   1.438   1_554  S
O1789     Co1797   1.938       .  S
O1790     Co1798   1.969   1_455  S
O1791      C1804   1.278       .  A
O1792     Co1800   1.928   1_556  S
O1793      C1805   1.252       .  A
O1793     Co1798   2.061       .  S
O1794      C1804   1.238       .  A
O1794     Co2093   1.950       .  S
O1795      C1802   1.282   1_565  A
O1795     Co1800   2.069       .  S
O1796      C1803   1.261   1_655  A
O1796     Co1799   1.994   1_655  S
Co1797     O2090   1.950   1_554  S
Co1797     O1801   2.042   1_554  S
Co1798     O2074   1.915       .  S
C1803      C2058   1.429       .  S
C1804      C2063   1.440       .  S
C1805      C2070   1.449   1_655  S
O1806      C1814   1.258       .  A
O1806     Co1826   1.948       .  S
O1807      C1815   1.242   1_655  A
O1808      C1816   1.295   1_565  A
O1808     Co1828   2.070       .  S
O1809      C1817   1.274       .  A
O1809     Co1829   1.999       .  S
O1810      C1816   1.279       .  A
O1810     Co1827   1.910       .  S
O1811      C1817   1.259       .  A
O1811     Co1826   1.957       .  S
O1812     Co1829   2.008       .  S
O1813     Co1828   2.018       .  S
C1814      C2060   1.432       .  S
C1815      C2056   1.436       .  S
C1816      C2049   1.434       .  S
C1817      C2047   1.417       .  S
O1818      C1831   1.272       .  A
O1818     Co1826   2.007       .  S
O1819      C1832   1.296       .  A
O1819     Co1827   2.091   1_565  S
O1820     Co1828   1.971       .  S
O1821     Co1829   1.847       .  S
O1822      C1834   1.313   1_655  A
O1822     Co1827   2.125       .  S
O1823      C1833   1.265       .  A
O1824      C1831   1.267       .  A
O1824     Co1829   1.984       .  S
O1825      C1832   1.266       .  A
O1825     Co1828   1.894       .  S
Co1826     O1830   2.019       .  S
Co1829     O1830   1.903       .  S
C1831      C2052   1.439       .  S
C1832      C2045   1.431       .  S
C1833      C2054   1.431       .  S
C1834      C2057   1.429       .  S
O1835      C1843   1.244       .  A
O1835     Co2151   1.936   1_554  S
O1836      C1844   1.251       .  A
O1836     Co1856   2.049       .  S
O1837      C1845   1.245       .  A
O1837     Co1857   1.941       .  S
O1838      C1846   1.235       .  A
O1838     Co1858   1.930       .  S
O1839      C1845   1.263       .  A
O1839     Co1856   2.016       .  S
O1840      C1846   1.264       .  A
O1840     Co1855   2.019       .  S
O1841     Co1858   1.933       .  S
O1842      C1843   1.283       .  A
C1843      C2037   1.449       .  S
C1844      C2069   1.451       .  S
C1845      C2036   1.435       .  S
C1846      C2041   1.444       .  S
O1847      C1860   1.259       .  A
O1847     Co1855   1.962       .  S
O1848      C1861   1.263       .  A
O1848     Co1856   1.977       .  S
O1849      C2158   1.244       .  A
O1850      C1863   1.273       .  A
O1851      C1863   1.244       .  A
O1851     Co2152   1.943       .  S
O1852      C1862   1.256   1_655  A
O1852     Co1855   2.051       .  S
O1853      C1860   1.272       .  A
O1853     Co1858   2.030       .  S
O1854      C1861   1.280       .  A
O1854     Co1857   1.953       .  S
Co1855     O2131   1.936       .  S
Co1855     O2155   2.151       .  S
Co1856     O2147   1.943   1_554  S
Co1858     O2155   2.116       .  S
O1859     Co2151   2.151   1_554  S
O1859     Co2154   2.116   1_554  S
C1860      C2033   1.446       .  S
C1861      C2044   1.434       .  S
C1862      O2145   1.244       .  A
C1862      C2071   1.479       .  S
C1863      C2039   1.457       .  S
O1864      C1872   1.260       .  A
O1864     Co1884   1.976       .  S
O1865      C1873   1.250       .  A
O1865     Co1885   2.005       .  S
O1866      C1874   1.249       .  A
O1866     Co1886   1.965       .  S
O1867      C1875   1.262       .  A
O1867     Co1887   1.995   1_655  S
O1868      C1874   1.259       .  A
O1868     Co1885   2.014       .  S
O1869      C1875   1.261       .  A
O1869     Co1884   1.955       .  S
O1870     Co1887   1.949   1_655  S
O1871      C1872   1.263       .  A
C1872      C2025   1.434       .  S
C1873      C2053   1.429       .  S
C1874      C2034   1.445       .  S
C1875      C2030   1.411       .  S
O1876      C1889   1.262       .  A
O1876     Co1884   2.017       .  S
O1877      C1890   1.297       .  A
O1877     Co1885   2.082       .  S
O1878      C1891   1.252       .  A
O1879      C1892   1.266       .  A
O1880      C1892   1.301       .  A
O1880     Co1885   2.076       .  S
O1881      C1891   1.264   1_655  A
O1881     Co1884   2.016       .  S
O1882      C1889   1.251   1_455  A
O1882     Co1887   1.972       .  S
O1883      C1890   1.262       .  A
O1883     Co1886   1.885       .  S
Co1884     O1888   2.110       .  S
Co1887     O1888   1.918   1_455  S
C1889      C2035   1.437   1_655  S
C1890      C2032   1.421       .  S
C1891      C2055   1.434       .  S
C1892      C2028   1.426       .  S
O1893      C1901   1.262       .  A
O1893     Co1913   2.008       .  S
O1894      C1902   1.272   1_556  A
O1894     Co2210   1.908       .  S
O1895      C1903   1.266       .  A
O1895     Co1915   2.016   1_565  S
O1896      C1904   1.299       .  A
O1896     Co1916   2.065       .  S
O1897      C1903   1.270       .  A
O1897     Co1914   2.000       .  S
O1898      C1904   1.274       .  A
O1898     Co1913   1.897       .  S
O1899      C1902   1.294       .  A
O1900     Co2211   2.033       .  S
C1901      C2068   1.464       .  S
C1902      C2022   1.448       .  S
C1903      C2040   1.459       .  S
C1904      C2019   1.429       .  S
O1905      C1918   1.255       .  A
O1905     Co1913   2.004       .  S
O1906      C1919   1.263       .  A
O1906     Co1914   1.992       .  S
O1907      C1920   1.258       .  A
O1908     Co2212   2.002       .  S
O1909      C1921   1.240       .  A
O1909     Co1914   1.965       .  S
O1910      C1920   1.272       .  A
O1910     Co2209   2.017       .  S
O1911      C1918   1.247       .  A
O1911     Co1916   1.998       .  S
O1912      C1919   1.265   1_545  A
O1912     Co1915   1.980       .  S
Co1913     O2206   2.017       .  S
Co1914     O2190   1.908       .  S
Co1914     O2213   1.947   1_565  S
Co1915     O2196   2.033       .  S
Co1915     O2213   2.089       .  S
Co1916     O2204   2.002       .  S
O1917     Co2210   1.947   1_545  S
O1917     Co2211   2.089       .  S
C1918      C2038   1.459       .  S
C1919      C2017   1.425       .  S
C1920      C2024   1.437       .  S
C1921      C2065   1.435       .  S
O1922      C1930   1.256       .  A
O1922     Co1942   2.019       .  S
O1923      C1931   1.253       .  A
O1923     Co1943   1.957       .  S
O1924      C1932   1.274       .  A
O1924     Co1944   2.025   1_565  S
O1925      C1933   1.248       .  A
O1925     Co1945   1.970       .  S
O1926      C1932   1.258       .  A
O1926     Co1943   1.946       .  S
O1927      C1933   1.249       .  A
O1927     Co1942   1.967       .  S
O1928      C1931   1.266       .  A
O1929     Co1944   1.955   1_565  S
C1930      C2051   1.437       .  S
C1931      C2014   1.432       .  S
C1932      C2027   1.423       .  S
C1933      C2018   1.422       .  S
O1934      C1947   1.293       .  A
O1934     Co1942   2.068       .  S
O1935      C1948   1.261   1_565  A
O1935     Co1943   1.999       .  S
O1936      C1949   1.279       .  A
O1937     Co1945   1.982       .  S
O1938      C1950   1.263   1_565  A
O1938     Co1943   2.009       .  S
O1939      C1949   1.277       .  A
O1939     Co1942   1.998       .  S
O1940      C1947   1.269       .  A
O1940     Co1945   1.907       .  S
O1941      C1948   1.254       .  A
O1941     Co1944   1.988       .  S
Co1943     O1946   2.083       .  S
Co1944     O1946   1.964   1_545  S
C1947      C2026   1.433       .  S
C1948      C2020   1.428       .  S
C1949      C2015   1.435       .  S
C1950      C2050   1.428       .  S
O1951      C1959   1.233       .  A
O1951     Co2267   1.936   1_554  S
O1952      C1960   1.255       .  A
O1952     Co1972   2.048       .  S
O1953      C1961   1.264       .  A
O1953     Co1973   2.004       .  S
O1954      C1962   1.289       .  A
O1954     Co1974   2.037       .  S
O1955      C1961   1.254       .  A
O1955     Co1972   1.976       .  S
O1956      C1962   1.241       .  A
O1956     Co1971   1.892       .  S
O1957      C2256   1.228       .  A
O1957     Co1974   1.948       .  S
O1958      C1959   1.262       .  A
O1958     Co1973   2.054       .  S
C1959      C2064   1.439   1_554  S
C1960      O2253   1.228       .  A
C1960      C2021   1.442       .  S
C1961      C2011   1.450       .  S
C1962      C2043   1.435       .  S
O1963      C1976   1.258       .  A
O1963     Co1971   1.999       .  S
O1964      C1977   1.295       .  A
O1964     Co1972   2.084       .  S
O1965      C2274   1.245       .  A
O1965     Co1973   1.990   1_556  S
O1966      C1979   1.286       .  A
O1966     Co1974   1.967       .  S
O1967      C1979   1.275       .  A
O1967     Co2268   1.991       .  S
O1968      C1978   1.262       .  A
O1968     Co1971   2.030       .  S
O1969      C1976   1.256       .  A
O1969     Co1974   2.008       .  S
O1970      C1977   1.267       .  A
O1970     Co1973   1.918       .  S
Co1971     O2247   1.936       .  S
Co1971     O2271   2.116       .  S
Co1972     O2263   1.991   1_554  S
Co1972     O1975   2.250       .  S
Co1973     O1975   1.952       .  S
Co1974     O2271   1.933       .  S
O1975     Co2267   2.116   1_554  S
O1975     Co2270   1.933   1_554  S
C1976      C2009   1.448       .  S
C1977      C2042   1.448       .  S
C1978      O2261   1.245       .  A
C1978      C2023   1.432       .  S
C1979      C2061   1.443       .  S
O1980      C1988   1.262       .  A
O1980     Co2000   1.998       .  S
O1981      C1989   1.277       .  A
O1981     Co2001   2.004       .  S
O1982      C1990   1.267       .  A
O1982     Co2002   1.898       .  S
O1983      C1991   1.270       .  A
O1983     Co2003   2.024       .  S
O1984      C1990   1.292       .  A
O1984     Co2001   2.056       .  S
O1985      C1991   1.256       .  A
O1985     Co2000   1.984       .  S
O1986      C1989   1.278       .  A
O1986     Co2003   1.955       .  S
O1987      C1988   1.255       .  A
O1987     Co2002   1.981       .  S
C1988      C2048   1.411       .  S
C1989      C2013   1.435       .  S
C1990      C2031   1.421       .  S
C1991      C2012   1.448       .  S
O1992      C2005   1.269       .  A
O1992     Co2000   1.963       .  S
O1993      C2006   1.251       .  A
O1993     Co2001   1.990       .  S
O1994      C2007   1.263       .  A
O1994     Co2002   2.011       .  S
O1995      C2008   1.246       .  A
O1995     Co2003   1.968       .  S
O1996      C2008   1.251       .  A
O1996     Co2001   1.992       .  S
O1997      C2007   1.259       .  A
O1997     Co2000   1.961       .  S
O1998      C2005   1.269       .  A
O1998     Co2003   1.996       .  S
O1999      C2006   1.253       .  A
O1999     Co2002   1.989       .  S
Co2000     O2004   2.084       .  S
Co2001     O2004   2.239       .  S
Co2002     O2004   1.946       .  S
Co2003     O2004   1.994       .  S
C2005      C2029   1.412       .  S
C2006      C2010   1.446       .  S
C2007      C2016   1.437       .  S
C2008      C2046   1.431       .  S
C2009      C2010   1.213       .  T
C2011      C2012   1.216       .  T
C2013      C2014   1.205       .  T
C2015      C2016   1.208       .  T
C2021      C2022   1.214       .  T
C2023      C2024   1.206       .  T
C2025      C2026   1.205       .  T
C2027      C2028   1.201       .  T
C2029      C2030   1.191       .  T
C2031      C2032   1.198       .  T
C2037      C2038   1.220       .  T
C2039      C2040   1.221       .  T
C2041      C2338   1.214       .  T
C2042      C2337   1.214   1_554  T
C2043      C2340   1.215       .  T
C2044      C2339   1.215       .  T
C2045      C2046   1.204       .  T
C2047      C2048   1.194       .  T
C2049      C2050   1.204       .  T
C2051      C2052   1.208       .  T
C2053      C2054   1.205       .  T
C2055      C2056   1.206       .  T
C2059      C2060   1.206       .  T
C2061      C2358   1.213       .  T
C2062      C2357   1.213       .  T
C2063      C2360   1.212       .  T
C2064      C2359   1.212       .  T
C2065      C2066   1.205   1_565  T
C2067      C2068   1.223       .  T
O2073      C2081   1.265       .  A
O2073     Co2093   2.104       .  S
O2074      C2082   1.235       .  A
O2075      C2083   1.247       .  A
O2075     Co2095   1.951   1_655  S
O2076      C2084   1.252       .  A
O2076     Co2096   1.960       .  S
O2077     Co2094   2.011       .  S
O2078     Co2093   2.000       .  S
O2079      C2082   1.279       .  A
O2080     Co2095   1.935   1_654  S
C2081      C2368   1.474       .  S
C2082      C2358   1.438       .  S
O2085     Co2093   1.938       .  S
O2086     Co2094   1.969   1_455  S
O2087      C2100   1.278       .  A
O2088     Co2096   1.928       .  S
O2089      C2101   1.252       .  A
O2089     Co2094   2.061       .  S
O2090      C2100   1.238       .  A
O2091      C2098   1.282   1_565  A
O2091     Co2096   2.069       .  S
O2092      C2099   1.261   1_655  A
O2092     Co2095   1.994   1_655  S
Co2093     O2097   2.042       .  S
C2099      C2354   1.429       .  S
C2100      C2359   1.440       .  S
C2101      C2366   1.449   1_655  S
O2102      C2110   1.258       .  A
O2102     Co2122   1.948       .  S
O2103      C2111   1.242   1_655  A
O2104      C2112   1.295   1_565  A
O2104     Co2124   2.070       .  S
O2105      C2113   1.274       .  A
O2105     Co2125   1.999       .  S
O2106      C2112   1.279       .  A
O2106     Co2123   1.910       .  S
O2107      C2113   1.259       .  A
O2107     Co2122   1.957       .  S
O2108     Co2125   2.008       .  S
O2109     Co2124   2.018       .  S
C2110      C2356   1.432       .  S
C2111      C2352   1.436       .  S
C2112      C2345   1.434       .  S
C2113      C2343   1.417       .  S
O2114      C2127   1.272       .  A
O2114     Co2122   2.007       .  S
O2115      C2128   1.296       .  A
O2115     Co2123   2.091   1_565  S
O2116     Co2124   1.971       .  S
O2117     Co2125   1.847       .  S
O2118      C2130   1.313   1_655  A
O2118     Co2123   2.125       .  S
O2119      C2129   1.265       .  A
O2120      C2127   1.267       .  A
O2120     Co2125   1.984       .  S
O2121      C2128   1.266       .  A
O2121     Co2124   1.894       .  S
Co2122     O2126   2.019       .  S
Co2125     O2126   1.903       .  S
C2127      C2348   1.439       .  S
C2128      C2341   1.431       .  S
C2129      C2350   1.431       .  S
C2130      C2353   1.429       .  S
O2131      C2139   1.244       .  A
O2132      C2140   1.251       .  A
O2132     Co2152   2.049       .  S
O2133      C2141   1.245       .  A
O2133     Co2153   1.941       .  S
O2134      C2142   1.235       .  A
O2134     Co2154   1.930       .  S
O2135      C2141   1.263       .  A
O2135     Co2152   2.016       .  S
O2136      C2142   1.264       .  A
O2136     Co2151   2.019       .  S
O2137     Co2154   1.933   1_554  S
O2138      C2139   1.283       .  A
C2139      C2333   1.449       .  S
C2140      C2365   1.451       .  S
C2141      C2332   1.435       .  S
C2142      C2337   1.444       .  S
O2143      C2156   1.259       .  A
O2143     Co2151   1.962       .  S
O2144      C2157   1.263       .  A
O2144     Co2152   1.977       .  S
O2146      C2159   1.273       .  A
O2147      C2159   1.244       .  A
O2148      C2158   1.256   1_655  A
O2148     Co2151   2.051       .  S
O2149      C2156   1.272       .  A
O2149     Co2154   2.030       .  S
O2150      C2157   1.280       .  A
O2150     Co2153   1.953       .  S
C2156      C2329   1.446       .  S
C2157      C2340   1.434       .  S
C2158      C2367   1.479       .  S
C2159      C2335   1.457       .  S
O2160      C2168   1.260       .  A
O2160     Co2180   1.976       .  S
O2161      C2169   1.250       .  A
O2161     Co2181   2.005       .  S
O2162      C2170   1.249       .  A
O2162     Co2182   1.965       .  S
O2163      C2171   1.262       .  A
O2163     Co2183   1.995   1_655  S
O2164      C2170   1.259       .  A
O2164     Co2181   2.014       .  S
O2165      C2171   1.261       .  A
O2165     Co2180   1.955       .  S
O2166     Co2183   1.949   1_655  S
O2167      C2168   1.263       .  A
C2168      C2321   1.434       .  S
C2169      C2349   1.429       .  S
C2170      C2330   1.445       .  S
C2171      C2326   1.411       .  S
O2172      C2185   1.262       .  A
O2172     Co2180   2.017       .  S
O2173      C2186   1.297       .  A
O2173     Co2181   2.082       .  S
O2174      C2187   1.252       .  A
O2175      C2188   1.266       .  A
O2176      C2188   1.301       .  A
O2176     Co2181   2.076       .  S
O2177      C2187   1.264   1_655  A
O2177     Co2180   2.016       .  S
O2178      C2185   1.251   1_455  A
O2178     Co2183   1.972       .  S
O2179      C2186   1.262       .  A
O2179     Co2182   1.885       .  S
Co2180     O2184   2.110       .  S
Co2183     O2184   1.918   1_455  S
C2185      C2331   1.437   1_655  S
C2186      C2328   1.421       .  S
C2187      C2351   1.434       .  S
C2188      C2324   1.426       .  S
O2189      C2197   1.262       .  A
O2189     Co2209   2.008       .  S
O2190      C2198   1.272       .  A
O2191      C2199   1.266       .  A
O2191     Co2211   2.016   1_565  S
O2192      C2200   1.299       .  A
O2192     Co2212   2.065       .  S
O2193      C2199   1.270   1_554  A
O2193     Co2210   2.000   1_554  S
O2194      C2200   1.274       .  A
O2194     Co2209   1.897       .  S
O2195      C2198   1.294       .  A
C2197      C2364   1.464       .  S
C2198      C2318   1.448       .  S
C2199      C2336   1.459       .  S
C2200      C2315   1.429       .  S
O2201      C2214   1.255       .  A
O2201     Co2209   2.004       .  S
O2202      C2215   1.263       .  A
O2202     Co2210   1.992       .  S
O2203      C2216   1.258       .  A
O2205      C2217   1.240       .  A
O2205     Co2210   1.965       .  S
O2206      C2216   1.272   1_554  A
O2207      C2214   1.247       .  A
O2207     Co2212   1.998       .  S
O2208      C2215   1.265   1_545  A
O2208     Co2211   1.980       .  S
C2214      C2334   1.459       .  S
C2215      C2313   1.425       .  S
C2216      C2320   1.437       .  S
C2217      C2361   1.435       .  S
O2218      C2226   1.256       .  A
O2218     Co2238   2.019       .  S
O2219      C2227   1.253       .  A
O2219     Co2239   1.957       .  S
O2220      C2228   1.274       .  A
O2220     Co2240   2.025   1_565  S
O2221      C2229   1.248       .  A
O2221     Co2241   1.970       .  S
O2222      C2228   1.258       .  A
O2222     Co2239   1.946       .  S
O2223      C2229   1.249       .  A
O2223     Co2238   1.967       .  S
O2224      C2227   1.266       .  A
O2225     Co2240   1.955   1_565  S
C2226      C2347   1.437       .  S
C2227      C2310   1.432       .  S
C2228      C2323   1.423       .  S
C2229      C2314   1.422       .  S
O2230      C2243   1.293       .  A
O2230     Co2238   2.068       .  S
O2231      C2244   1.261   1_565  A
O2231     Co2239   1.999       .  S
O2232      C2245   1.279       .  A
O2233     Co2241   1.982       .  S
O2234      C2246   1.263   1_565  A
O2234     Co2239   2.009       .  S
O2235      C2245   1.277       .  A
O2235     Co2238   1.998       .  S
O2236      C2243   1.269       .  A
O2236     Co2241   1.907       .  S
O2237      C2244   1.254       .  A
O2237     Co2240   1.988       .  S
Co2239     O2242   2.083       .  S
Co2240     O2242   1.964   1_545  S
C2243      C2322   1.433       .  S
C2244      C2316   1.428       .  S
C2245      C2311   1.435       .  S
C2246      C2346   1.428       .  S
O2247      C2255   1.233       .  A
O2248      C2256   1.255       .  A
O2248     Co2268   2.048       .  S
O2249      C2257   1.264       .  A
O2249     Co2269   2.004       .  S
O2250      C2258   1.289       .  A
O2250     Co2270   2.037       .  S
O2251      C2257   1.254       .  A
O2251     Co2268   1.976       .  S
O2252      C2258   1.241       .  A
O2252     Co2267   1.892       .  S
O2253     Co2270   1.948   1_554  S
O2254      C2255   1.262       .  A
O2254     Co2269   2.054       .  S
C2255      C2360   1.439       .  S
C2256      C2317   1.442       .  S
C2257      C2307   1.450       .  S
C2258      C2339   1.435   1_556  S
O2259      C2272   1.258       .  A
O2259     Co2267   1.999       .  S
O2260      C2273   1.295       .  A
O2260     Co2268   2.084       .  S
O2261     Co2269   1.990       .  S
O2262      C2275   1.286       .  A
O2262     Co2270   1.967       .  S
O2263      C2275   1.275       .  A
O2264      C2274   1.262       .  A
O2264     Co2267   2.030       .  S
O2265      C2272   1.256       .  A
O2265     Co2270   2.008       .  S
O2266      C2273   1.267       .  A
O2266     Co2269   1.918       .  S
Co2268     O2271   2.250       .  S
Co2269     O2271   1.952       .  S
C2272      C2305   1.448       .  S
C2273      C2338   1.448       .  S
C2274      C2319   1.432       .  S
C2275      C2357   1.443       .  S
O2276      C2284   1.262       .  A
O2276     Co2296   1.998       .  S
O2277      C2285   1.277       .  A
O2277     Co2297   2.004       .  S
O2278      C2286   1.267       .  A
O2278     Co2298   1.898       .  S
O2279      C2287   1.270       .  A
O2279     Co2299   2.024       .  S
O2280      C2286   1.292       .  A
O2280     Co2297   2.056       .  S
O2281      C2287   1.256       .  A
O2281     Co2296   1.984       .  S
O2282      C2285   1.278       .  A
O2282     Co2299   1.955       .  S
O2283      C2284   1.255       .  A
O2283     Co2298   1.981       .  S
C2284      C2344   1.411       .  S
C2285      C2309   1.435       .  S
C2286      C2327   1.421       .  S
C2287      C2308   1.448       .  S
O2288      C2301   1.269       .  A
O2288     Co2296   1.963       .  S
O2289      C2302   1.251       .  A
O2289     Co2297   1.990       .  S
O2290      C2303   1.263       .  A
O2290     Co2298   2.011       .  S
O2291      C2304   1.246       .  A
O2291     Co2299   1.968       .  S
O2292      C2304   1.251       .  A
O2292     Co2297   1.992       .  S
O2293      C2303   1.259       .  A
O2293     Co2296   1.961       .  S
O2294      C2301   1.269       .  A
O2294     Co2299   1.996       .  S
O2295      C2302   1.253       .  A
O2295     Co2298   1.989       .  S
Co2296     O2300   2.084       .  S
Co2297     O2300   2.239       .  S
Co2298     O2300   1.946       .  S
Co2299     O2300   1.994       .  S
C2301      C2325   1.412       .  S
C2302      C2306   1.446       .  S
C2303      C2312   1.437       .  S
C2304      C2342   1.431       .  S
C2305      C2306   1.213       .  T
C2307      C2308   1.216       .  T
C2309      C2310   1.205       .  T
C2311      C2312   1.208       .  T
C2317      C2318   1.214       .  T
C2319      C2320   1.206       .  T
C2321      C2322   1.205       .  T
C2323      C2324   1.201       .  T
C2325      C2326   1.191       .  T
C2327      C2328   1.198       .  T
C2333      C2334   1.220       .  T
C2335      C2336   1.221       .  T
C2341      C2342   1.204       .  T
C2343      C2344   1.194       .  T
C2345      C2346   1.204       .  T
C2347      C2348   1.208       .  T
C2349      C2350   1.205       .  T
C2351      C2352   1.206       .  T
C2355      C2356   1.206       .  T
C2361      C2362   1.205   1_565  T
C2363      C2364   1.223       .  T
