geometry optimzed in LAMMPS
_audit_creation_date              2020-11-30 
_audit_creation_method            'lammps2cif' 
_symmetry_space_group_name_H-M    'P1' 
_symmetry_Int_Tables_number       1 
_symmetry_cell_setting            triclinic 
loop_ 
_symmetry_equiv_pos_as_xyz 
  x,y,z 
_cell_length_a                    30.29869335926433 
_cell_length_b                    30.66677499789499 
_cell_length_c                    32.055983638331426 
_cell_angle_alpha                 91.12442533517478 
_cell_angle_beta                  89.43933403731513 
_cell_angle_gamma                 119.49108869427145 
loop_ 
_atom_site_label 
_atom_site_type_symbol 
_atom_site_fract_x 
_atom_site_fract_y 
_atom_site_fract_z 
_atom_site_charge 
C1          C  0.01206844  0.16672773  0.94727332     0.42210
N2          N  0.01269146  0.11086855  0.98630880     0.01100
C3          C  0.09599262  0.94094996  0.94221387    -0.06780
H4          H  0.94678315  0.91175620  0.84938243     0.06590
C5          C  0.84597204  0.87913231  0.00546759    -0.07130
Co6        Co  0.06125565  0.05666234  0.94469403     0.74180
N7          N  0.98459737  0.96642781  0.89820796    -0.26310
Co8        Co  0.98684110  0.92776856  0.95152403     0.74070
C9          C  0.82897582  0.84363638  0.97113321     0.42310
N10         N  0.91098549  0.99246881  0.05133211     0.00710
N11         N  0.90869143  0.89617553  0.96372927     0.00820
N12         N  0.14231089  0.02502334  0.93750501    -0.47150
H13         H  0.04732306  0.14476844  0.89228102     0.06580
N14         N  0.01144196  0.01574251  0.89785266     0.01110
N15         N  0.99064016  0.89148961  0.00478816     0.00850
C16         C  0.99175293  0.83619895  0.04438571     0.42450
N17         N  0.93807829  0.04152854  0.04822423    -0.25760
C18         C  0.15950143  0.12432250  0.98830897    -0.06680
N19         N  0.00152117  0.14749898  0.98589978    -0.46870
N20         N  0.00150245  0.85460623  0.00541132    -0.47090
C21         C  0.17519469  0.15692714  0.02474864     0.42220
N22         N  0.09323939  0.00995353  0.94026136     0.01090
N23         N  0.02035937  0.03740353  0.09212018    -0.25780
N24         N  0.03061138  0.10484494  0.95026406    -0.26280
N25         N  0.99324816  0.98824534  0.09393152     0.00730
H26         H  0.06447417  0.09436539  0.13734141     0.06620
H27         H  0.95863901  0.86003016  0.09970905     0.06660
N28         N  0.06524261  0.96094498  0.94313587    -0.26330
N29         N  0.89513736  0.90769151  0.99960678    -0.25940
N30         N  0.09474948  0.10659861  0.02781664     0.01100
C31         C  0.98576284  0.99668060  0.83424519     0.42490
C32         C  0.90621584  0.06038146  0.05012982    -0.07190
N33         N  0.97398061  0.89854479  0.04111813    -0.25940
H34         H  0.82727955  0.87628219  0.03501585     0.06640
N35         N  0.01285394  0.03467033  0.86108883    -0.47160
H36         H  0.91700344  0.09949891  0.04759184     0.06630
C37         C  0.02334656  0.01048203  0.15608158     0.42330
C38         C  0.03169858  0.13861674  0.92346180    -0.06690
Co39       Co  0.01672711  0.07497117  0.03933734     0.73820
N40         N  0.86177513  0.97613687  0.05482939    -0.46880
C41         C  0.14758563  0.98377559  0.93817189     0.42600
N42         N  0.13286067  0.14458406  0.04775914    -0.46870
Co43       Co  0.94356984  0.94679767  0.04691471     0.73890
C44         C  0.97327795  0.86523443  0.06822722    -0.07200
C45         C  0.96650916  0.95057876  0.85922184    -0.06760
N46         N  0.10970181  0.09624088  0.99210293    -0.26290
N47         N  0.87006473  0.85600813  0.94624232    -0.47050
H48         H  0.08325810  0.90166698  0.94600030     0.06600
C49         C  0.04174401  0.05505989  0.12965909    -0.07170
Cl50       Cl  0.00209614  0.00149796  0.99555062    -0.50170
C51         C  0.85535716  0.01649954  0.05402084     0.42360
H52         H  0.18054014  0.12765382  0.95995800     0.06570
N53         N  0.99375462  0.97097137  0.13115505    -0.46880
C54         C  0.98700905  0.97378987  0.33314216     0.42210
N55         N  0.98802792  0.00256768  0.39522149     0.01100
C56         C  0.13908411  0.01016361  0.55787146    -0.06780
H57         H  0.97938204  0.84438171  0.54322501     0.06590
C58         C  0.86458805  0.91238166  0.56443153    -0.07130
Co59       Co  0.06351344  0.99435086  0.44797195     0.74180
N60         N  0.00951815  0.90924154  0.50536072    -0.26310
Co61       Co  0.01884780  0.96025320  0.55005911     0.74070
C62         C  0.86129452  0.86331677  0.56965153     0.42310
N63         N  0.90474625  0.00417174  0.49356046     0.00710
N64         N  0.93988895  0.92127727  0.56131058     0.00820
N65         N  0.16007879  0.03465664  0.49155294    -0.47150
H66         H  0.04041411  0.94467215  0.35278875     0.06580
N67         N  0.02765473  0.91943672  0.46709564     0.01110
N68         N  0.02659384  0.01245436  0.59566180     0.00850
C69         C  0.02632299  0.03921177  0.65809141     0.42450
N70         N  0.91855741  0.01837047  0.45485531    -0.25760
C71         C  0.15034163  0.10299037  0.42632972    -0.06680
N72         N  0.97191146  0.00106818  0.35675203    -0.46870
N73         N  0.04158163  0.01238917  0.63425139    -0.47090
C74         C  0.15380901  0.15186272  0.42095405     0.42220
N75         N  0.11106446  0.01254823  0.49717756     0.01090
N76         N  0.00694254  0.10743116  0.48528045    -0.25780
N77         N  0.01447571  0.97915088  0.39823057    -0.26280
N78         N  0.98939398  0.09716223  0.52372937     0.00730
H79         H  0.04113701  0.17389598  0.44899951     0.06620
H80         H  0.97375024  0.06942501  0.63916814     0.06660
N81         N  0.09683150  0.99848154  0.53587406    -0.26330
N82         N  0.91424823  0.94544866  0.55880003    -0.25940
N83         N  0.07516973  0.09435543  0.42868492     0.01100
C84         C  0.00291676  0.84193301  0.47607733     0.42490
C85         C  0.87600015  0.00691515  0.43329904    -0.07190
N86         N  0.00035209  0.03608405  0.59287671    -0.25940
H87         H  0.83407262  0.92092367  0.56270393     0.06640
N88         N  0.02692183  0.87983475  0.44869822    -0.47160
H89         H  0.87445220  0.01610985  0.40114359     0.06630
C90         C  0.01911838  0.17612862  0.51668217     0.42330
C91         C  0.01532286  0.95917015  0.36091378    -0.06690
Co92       Co  0.99643552  0.05587942  0.44035469     0.73820
N93         N  0.85583770  0.98189372  0.49954201    -0.46880
C94         C  0.18115392  0.03551865  0.52795918     0.42600
N95         N  0.10546061  0.14331880  0.42361433    -0.46870
Co96       Co  0.95212746  0.02177239  0.54267356     0.73890
C97         C  0.99861739  0.05477291  0.63062640    -0.07200
C98         C  0.99177880  0.86148978  0.51304611    -0.06760
N99         N  0.10066697  0.07008238  0.43135956    -0.26290
N100        N  0.90991542  0.87243402  0.56733611    -0.47050
H101        H  0.14021655  0.00096638  0.59009101     0.06600
C102        C  0.02754103  0.15591641  0.47872895    -0.07170
Cl103      Cl  0.00772211  0.00806295  0.49526944    -0.50170
C104        C  0.83424493  0.98122443  0.46349342     0.42360
H105        H  0.18092281  0.09466196  0.42893490     0.06570
N106        N  0.99350679  0.13762906  0.54330728    -0.46880
C107        C  0.16679446  0.50229543  0.05084804     0.42210
N108        N  0.11531281  0.51082655  0.01063490     0.01100
C109        C  0.94947045  0.59881070  0.06029366    -0.06780
H110        H  0.91293609  0.44108563  0.14324786     0.06590
C111        C  0.88197166  0.35083492  0.98942031    -0.07130
Co112      Co  0.06323639  0.55987652  0.05532215     0.74180
N113        N  0.97105686  0.48419262  0.09874682    -0.26310
Co114      Co  0.93405058  0.49014095  0.04603560     0.74070
C115        C  0.85017877  0.33432858  0.02586211     0.42310
N116        N  0.99574324  0.41474655  0.94178001     0.00710
N117        N  0.90064666  0.41349085  0.03141456     0.00820
N118        N  0.03458343  0.64254936  0.06613042    -0.47150
H119        H  0.14525863  0.53571422  0.10709594     0.06580
N120        N  0.02084666  0.51042346  0.10143421     0.01110
N121        N  0.89937161  0.49728417  0.99356552     0.00850
C122        C  0.84347809  0.50174418  0.95559040     0.42450
N123        N  0.04542944  0.44058259  0.94548505    -0.25760
C124        C  0.13073674  0.65732250  0.01397083    -0.06680
N125        N  0.15041940  0.49707999  0.01109763    -0.46870
N126        N  0.86349845  0.50970049  0.99423242    -0.47090
C127        C  0.16123405  0.67481610  0.97681536     0.42220
N128        N  0.01821062  0.59392970  0.06144929     0.01090
N129        N  0.04273141  0.52409826  0.90461865    -0.25780
N130        N  0.10859099  0.52640491  0.04763992    -0.26280
N131        N  0.99279178  0.49841047  0.90306388     0.00730
H132        H  0.09887688  0.56671965  0.85790348     0.06620
H133        H  0.86592910  0.46847053  0.89870597     0.06660
N134        N  0.96858275  0.56741265  0.05771020    -0.26330
N135        N  0.91052606  0.39980558  0.99483885    -0.25940
N136        N  0.11337554  0.59492140  0.97210702     0.01100
C137        C  0.99761361  0.48001060  0.16270203     0.42490
C138        C  0.06365198  0.40845438  0.94167376    -0.07190
N139        N  0.90482390  0.48104462  0.95662009    -0.25940
H140        H  0.87779992  0.33084994  0.96029079     0.06640
N141        N  0.03804670  0.50919376  0.13883973    -0.47160
H142        H  0.10309937  0.41850267  0.94430089     0.06630
C143        C  0.01342959  0.53053993  0.84225931     0.42330
C144        C  0.13960190  0.52246381  0.07504380    -0.06690
Co145      Co  0.08048577  0.51809411  0.95740954     0.73820
N146        N  0.97854840  0.36624398  0.93571535    -0.46880
C147        C  0.99362414  0.64910832  0.06570503     0.42600
N148        N  0.14961095  0.63396585  0.95216628    -0.46870
Co149      Co  0.95086645  0.44849756  0.94867045     0.73890
C150        C  0.87149975  0.48270344  0.93029195    -0.07200
C151        C  0.95273379  0.46283816  0.13579167    -0.06760
N152        N  0.10376903  0.60821219  0.00896874    -0.26290
N153        N  0.86229920  0.37529888  0.05033907    -0.47050
H154        H  0.90990342  0.58801225  0.05690282     0.06600
C155        C  0.05953855  0.54571117  0.86725316    -0.07170
Cl156      Cl  0.00727250  0.50410585  0.00188265    -0.50170
C157        C  0.01874774  0.35863067  0.93530070     0.42360
H158        H  0.13394378  0.67740088  0.04287257     0.06570
N159        N  0.97416273  0.50078089  0.86671270    -0.46880
C160        C  0.01198445  0.34822399  0.47264299     0.42210
N161        N  0.99839381  0.40263432  0.50305077     0.01100
C162        C  0.91101639  0.55713592  0.43878145    -0.06780
H163        H  0.06879739  0.58405151  0.35433362     0.06590
C164        C  0.16053037  0.63160249  0.51292237    -0.07130
Co165      Co  0.95019650  0.44591918  0.45037959     0.74180
N166        N  0.02889013  0.53155038  0.40317921    -0.26310
Co167      Co  0.02197676  0.57364866  0.45220767     0.74070
C168        C  0.17961534  0.66106601  0.47618199     0.42310
N169        N  0.09476417  0.52489304  0.56438438     0.00710
N170        N  0.09991373  0.60916571  0.46804623     0.00820
N171        N  0.86663657  0.47277141  0.43680677    -0.47150
H172        H  0.97785690  0.35573232  0.41062085     0.06580
N173        N  0.00193489  0.48224984  0.40315356     0.01110
N174        N  0.01316469  0.61240169  0.50025024     0.00850
C175        C  0.00525154  0.67117298  0.52873891     0.42450
N176        N  0.06755832  0.47568534  0.56359600    -0.25760
C177        C  0.85046160  0.38373825  0.49037312    -0.06680
N178        N  0.01560691  0.37165199  0.50892986    -0.46870
N179        N  0.99876364  0.64534211  0.49338162    -0.47090
C180        C  0.83096097  0.35433885  0.52716823     0.42220
N181        N  0.91615396  0.48939349  0.43903902     0.01090
N182        N  0.98264598  0.48342195  0.60050299    -0.25780
N183        N  0.98314549  0.40186102  0.46453474    -0.26280
N184        N  0.00972392  0.53280128  0.60041727     0.00730
H185        H  0.94577852  0.43101475  0.65002246     0.06620
H186        H  0.04151704  0.66563979  0.59025950     0.06660
N187        N  0.94322427  0.53863723  0.44058511    -0.26330
N188        N  0.11163859  0.60261817  0.50602861    -0.25940
N189        N  0.91104347  0.40559382  0.53523094     0.01100
C190        C  0.03191905  0.49926639  0.34088513     0.42490
C191        C  0.09953305  0.45704318  0.56698393    -0.07190
N192        N  0.02953278  0.61423595  0.53855714    -0.25940
H193        H  0.17830443  0.63817316  0.54320133     0.06640
N194        N  0.00178208  0.46177228  0.36644551    -0.47160
H195        H  0.08871027  0.41778904  0.56538938     0.06630
C196        C  0.98308060  0.51574511  0.66356469     0.42330
C197        C  0.98931348  0.36722174  0.44261598    -0.06690
Co198      Co  0.98902696  0.44095721  0.55140343     0.73820
N199        N  0.14411548  0.54124575  0.56734921    -0.47040
C200        C  0.86005124  0.51316114  0.43630271     0.42600
N201        N  0.87082233  0.36862906  0.55384457    -0.46870
Co202      Co  0.06128874  0.56895991  0.55290743     0.73890
C203        C  0.02728838  0.65196053  0.55917349    -0.07200
C204        C  0.04938982  0.54586001  0.36514251    -0.06760
N205        N  0.89955233  0.41199805  0.49713227    -0.26290
N206        N  0.13975166  0.64671292  0.44957612    -0.47050
H207        H  0.92144592  0.59621899  0.44124510     0.06600
C208        C  0.96405637  0.46913865  0.63908596    -0.07170
Cl209      Cl  0.00558954  0.50740167  0.50177527    -0.50170
C210        C  0.15083890  0.50091418  0.56896700     0.42360
H211        H  0.83249195  0.37769652  0.46020164     0.06570
N212        N  0.01177959  0.55327473  0.63755109    -0.46880
C213        C  0.34770666  0.99933712  0.94224181     0.42210
N214        N  0.42782517  0.02594461  0.94811038     0.01100
C215        C  0.53078941  0.87329586  0.99515349    -0.06780
H216        H  0.38628504  0.84316651  0.08749691     0.06590
C217        C  0.50716714  0.04352027  0.13672490    -0.07130
Co218      Co  0.45003712  0.94108423  0.95362672     0.74180
N219        N  0.42313802  0.89663247  0.03809861    -0.26310
Co220      Co  0.50153209  0.93931784  0.04925495     0.74070
C221        C  0.48316639  0.99985901  0.16297938     0.42310
N222        N  0.51478676  0.10365770  0.04485060     0.00710
N223        N  0.49172460  0.97692261  0.10096859     0.00820
N224        N  0.49418867  0.87209128  0.93375398    -0.47150
H225        H  0.32964008  0.91712387  0.94181141     0.06580
N226        N  0.40575955  0.90196715  0.00212436     0.01110
N227        N  0.58019022  0.98350891  0.05718036     0.00850
C228        C  0.66064668  0.01143652  0.06355681     0.42450
N229        N  0.49569788  0.10462556  0.00831911    -0.25760
C230        C  0.50050923  0.96448938  0.86920122    -0.06680
N231        N  0.39377162  0.04111676  0.94549437    -0.46870
N232        N  0.61489960  0.96911995  0.05969652    -0.47090
C233        C  0.52448364  0.00772667  0.84244994     0.42220
N234        N  0.49187009  0.90420584  0.96076248     0.01090
N235        N  0.58456327  0.11239790  0.96708675    -0.25780
N236        N  0.40700643  0.97678939  0.94714643    -0.26280
N237        N  0.60155197  0.10769392  0.00346642     0.00730
H238        H  0.62184766  0.16465321  0.91697652     0.06620
H239        H  0.67673064  0.09306917  0.06236573     0.06660
N240        N  0.51172098  0.90432636  0.99722949    -0.26330
N241        N  0.51203488  0.02599186  0.09978849    -0.25940
N242        N  0.51572053  0.03157640  0.90416888     0.01100
C243        C  0.34002732  0.84401289  0.03066328     0.42490
C244        C  0.47596466  0.13514451  0.01134408    -0.07190
N245        N  0.60044759  0.03258583  0.05814353    -0.25940
H246        H  0.52409089  0.08278205  0.14527063     0.06640
N247        N  0.35723697  0.87184514  0.99679925    -0.47160
H248        H  0.46091001  0.14620020  0.98568577     0.06630
C249        C  0.66761227  0.16584133  0.97505591     0.42330
C250        C  0.35670711  0.95674713  0.94297743    -0.06690
Co251      Co  0.50621294  0.06972938  0.95593398     0.73820
N252        N  0.51119303  0.13418549  0.07270801    -0.46880
C253        C  0.51927869  0.85201705  0.95309456     0.42600
N254        N  0.53273197  0.04836151  0.86612771    -0.46870
Co255      Co  0.55712542  0.06773264  0.05179705     0.73890
C256        C  0.65075020  0.05337351  0.06217073    -0.07200
C257        C  0.38395607  0.85907894  0.05833282    -0.06760
N258        N  0.49535223  0.98251345  0.90574444    -0.26290
N259        N  0.47493147  0.95959925  0.13889652    -0.47050
H260        H  0.54572320  0.86275692  0.02123637     0.06600
C261        C  0.62397824  0.14957394  0.94663736    -0.07170
Cl262      Cl  0.50377528  0.00446347  0.00262069    -0.50170
C263        C  0.48571301  0.15430535  0.05425048     0.42360
H264        H  0.48408117  0.92507276  0.86146163     0.06570
N265        N  0.64991237  0.13827292  0.00908151    -0.46880
C266        C  0.51845839  0.15714024  0.57545296     0.42210
N267        N  0.49273710  0.07722190  0.56895389     0.01100
C268        C  0.63370291  0.97678869  0.48411420    -0.06780
H269        H  0.65853386  0.12870527  0.40968063     0.06590
C270        C  0.45400143  0.00032501  0.37062254    -0.07130
Co271      Co  0.57761127  0.05656537  0.54987002     0.74180
N272        N  0.61167757  0.08843762  0.46254379    -0.26310
Co273      Co  0.56681196  0.01094760  0.44792647     0.74070
C274        C  0.49690600  0.02543554  0.34232286     0.42310
N275        N  0.40279345  0.99453927  0.47464485     0.00710
N276        N  0.52417351  0.02196136  0.40318559     0.00820
N277        N  0.64987623  0.01122643  0.54901081    -0.47150
H278        H  0.60190965  0.17441549  0.56882843     0.06580
N279        N  0.61224708  0.10304472  0.50164177     0.01110
N280        N  0.52332158  0.93301973  0.43722887     0.00850
C281        C  0.50007756  0.85364274  0.43379921     0.42450
N282        N  0.41035143  0.01338977  0.51288184    -0.25760
C283        C  0.56017962  0.00757994  0.63521144    -0.06680
N284        N  0.47701977  0.11057360  0.57409400    -0.46870
N285        N  0.54045849  0.90065355  0.43340134    -0.47090
C286        C  0.51686788  0.98207041  0.66300370     0.42220
N287        N  0.61298004  0.01541588  0.53071039     0.01090
N288        N  0.40260322  0.92211766  0.54328903    -0.25780
N289        N  0.54231134  0.09859219  0.56607910    -0.26280
N290        N  0.40298439  0.90696634  0.50456311     0.00730
H291        H  0.35329812  0.88316040  0.59539387     0.06620
H292        H  0.41622815  0.83245165  0.44233914     0.06660
N293        N  0.60554938  0.99768849  0.49213272    -0.26330
N294        N  0.47446578  0.99902795  0.40695469    -0.25940
N295        N  0.49048754  0.98731104  0.60232720     0.01100
C296        C  0.66727574  0.17005376  0.47304392     0.42490
C297        C  0.38401232  0.03668686  0.51926377    -0.07190
N298        N  0.47368227  0.91054996  0.44102910    -0.25940
H299        H  0.41393202  0.97970760  0.36349656     0.06640
N300        N  0.64425602  0.15045173  0.50882212    -0.47160
H301        H  0.37975044  0.05160185  0.54893076     0.06630
C302        C  0.34579255  0.84093297  0.53273083     0.42330
C303        C  0.56198262  0.14840154  0.57067402    -0.06690
Co304      Co  0.44829683  0.99945557  0.55771914     0.73820
N305        N  0.36758754  0.00026891  0.45507768    -0.46880
C306        C  0.66307117  0.98564210  0.52114236     0.42600
N307        N  0.47504108  0.97114738  0.64054859    -0.46870
Co308      Co  0.43781145  0.95273610  0.45628674     0.73890
C309        C  0.45552685  0.86060499  0.43860241    -0.07200
C310        C  0.64692221  0.12879933  0.44166457    -0.06760
N311        N  0.54027099  0.00966170  0.59880437    -0.26290
N312        N  0.53908680  0.03734066  0.36469609    -0.47050
H313        H  0.63877338  0.96418065  0.45364262     0.06600
C314        C  0.36593025  0.88241919  0.56386474    -0.07170
Cl315      Cl  0.50762572  0.00493273  0.50296058    -0.50170
C316        C  0.35563349  0.02804661  0.48150831     0.42360
H317        H  0.60011609  0.02793992  0.64286034     0.06570
N318        N  0.37031529  0.85980142  0.49734188    -0.46880
C319        C  0.36270626  0.52030802  0.07872534     0.42210
N320        N  0.41725764  0.49562332  0.06979172     0.01100
C321        C  0.66104128  0.62372256  0.99663834    -0.06780
H322        H  0.53627663  0.63654736  0.90226076     0.06590
C323        C  0.46174483  0.44604369  0.87533125    -0.07130
Co324      Co  0.52158648  0.57805583  0.05274328     0.74180
N325        N  0.52800963  0.60304219  0.96244100    -0.26310
Co326      Co  0.56012943  0.55721838  0.95541733     0.74070
C327        C  0.47855206  0.48968531  0.84835350     0.42310
N328        N  0.41206128  0.39936738  0.98107309     0.00710
N329        N  0.50821550  0.51430895  0.91015059     0.00820
N330        N  0.63867606  0.64418350  0.05802168    -0.47150
H331        H  0.42389196  0.60291841  0.06854069     0.06580
N332        N  0.51321072  0.61117590  0.99918711     0.01110
N333        N  0.59280384  0.51207290  0.94883534     0.00850
C334        C  0.64677251  0.48708893  0.94000440     0.42450
N335        N  0.39890737  0.40916865  0.01785950    -0.25760
C336        C  0.54909732  0.56261632  0.14328430    -0.06680
N337        N  0.36871479  0.47965291  0.07698652    -0.46870
N338        N  0.64124625  0.52796477  0.94127628    -0.47090
C339        C  0.53236966  0.51959055  0.17071579     0.42220
N340        N  0.59864250  0.60854533  0.03798217     0.01090
N341        N  0.48245613  0.40466305  0.05647100    -0.25780
N342        N  0.44402595  0.54455076  0.06551272    -0.26280
N343        N  0.49792304  0.39782394  0.01956124     0.00730
H344        H  0.47488193  0.36983742  0.11601817     0.06620
H345        H  0.58667371  0.40491691  0.95174594     0.06660
N346        N  0.61119328  0.59798105  0.00126608    -0.26330
N347        N  0.48202792  0.46513007  0.91298398    -0.25940
N348        N  0.50194134  0.49378589  0.10927419     0.01100
C349        C  0.50412804  0.66052822  0.95783521     0.42490
C350        C  0.34887460  0.38304242  0.02191818    -0.07190
N351        N  0.56612945  0.46322883  0.95350860    -0.25940
H352        H  0.44219439  0.40665967  0.86685946     0.06640
N353        N  0.49952788  0.64601527  0.99792652    -0.47160
H354        H  0.32822145  0.38047162  0.05032166     0.06630
C355        C  0.50892269  0.34889853  0.05969300     0.42330
C356        C  0.41285136  0.56369559  0.07058170    -0.06690
Co357      Co  0.44996152  0.45035067  0.06377465     0.73820
N358        N  0.37252375  0.36415496  0.96035594    -0.46880
C359        C  0.67966162  0.65568583  0.03341910     0.42600
N360        N  0.50259069  0.47854941  0.14744536    -0.46870
Co361      Co  0.48892107  0.43019706  0.96629122     0.73890
C362        C  0.59723060  0.44393348  0.94884712    -0.07200
C363        C  0.52383810  0.63264106  0.93438119    -0.06760
N364        N  0.52834794  0.54295041  0.10593339    -0.26290
N365        N  0.50768190  0.53020604  0.87230727    -0.47050
H366        H  0.68091079  0.62568499  0.96791593     0.06600
C367        C  0.48723116  0.37467836  0.08384152    -0.07170
Cl368      Cl  0.50512135  0.50396133  0.00957121    -0.50170
C369        C  0.33105635  0.35264859  0.98421530     0.42360
H370        H  0.56861185  0.60210354  0.15139491     0.06570
N371        N  0.51344215  0.36445070  0.02008064    -0.46880
C372        C  0.34706579  0.50514950  0.56151615     0.42210
N373        N  0.40506572  0.48369654  0.55750767     0.01100
C374        C  0.66285340  0.64162175  0.51517390    -0.06780
H375        H  0.55360154  0.65592230  0.41154214     0.06590
C376        C  0.48229227  0.46039103  0.37319865    -0.07130
Co377      Co  0.51100768  0.57281457  0.55426736     0.74180
N378        N  0.53340982  0.61113559  0.46716987    -0.26310
Co379      Co  0.56975591  0.56713855  0.46325143     0.74070
C380        C  0.50082805  0.50582701  0.34868083     0.42310
N381        N  0.41881007  0.39667737  0.46801731     0.00710
N382        N  0.52586721  0.52605311  0.41213237     0.00820
N383        N  0.62572184  0.65023481  0.57372158    -0.47150
H384        H  0.40744510  0.58920206  0.56011620     0.06580
N385        N  0.50996537  0.61217294  0.50184093     0.01110
N386        N  0.60587075  0.52340944  0.46083443     0.00850
C387        C  0.66214438  0.50004665  0.45524805     0.42450
N388        N  0.39799399  0.39991244  0.50345749    -0.25760
C389        C  0.52805556  0.54788124  0.64472429    -0.06680
N390        N  0.35534032  0.46568669  0.56007288    -0.46870
N391        N  0.65548897  0.54049476  0.45803743    -0.47090
C392        C  0.50974309  0.50240469  0.66941065     0.42220
N393        N  0.59207806  0.61276801  0.54953139     0.01090
N394        N  0.47749897  0.39677660  0.55048214    -0.25780
N395        N  0.43087539  0.53320074  0.55710272    -0.26280
N396        N  0.50021533  0.39534218  0.51549829     0.00730
H397        H  0.45691244  0.35174596  0.60597068     0.06620
H398        H  0.60113382  0.41659850  0.45494516     0.06660
N399        N  0.61310417  0.60831551  0.51457302    -0.26330
N400        N  0.49969997  0.47652810  0.41197701    -0.25940
N401        N  0.48556530  0.48213426  0.60567612     0.01100
C402        C  0.50774039  0.66849685  0.46371877     0.42490
C403        C  0.34814012  0.36722576  0.50236669    -0.07190
N404        N  0.57928942  0.47385198  0.46024495    -0.25940
H405        H  0.46313654  0.42169400  0.36264989     0.06640
N406        N  0.49462081  0.64593710  0.50116469    -0.47160
H407        H  0.32258779  0.35989824  0.52837747     0.06630
C408        C  0.50098518  0.33796681  0.55296878     0.42330
C409        C  0.39749814  0.55015109  0.55940162    -0.06690
Co410      Co  0.44150594  0.44075823  0.55478610     0.73820
N411        N  0.38486488  0.36122896  0.44265676    -0.46880
C412        C  0.67172586  0.66986317  0.55428298     0.42600
N413        N  0.48332107  0.46344443  0.64298870    -0.46870
Co414      Co  0.49948087  0.43529341  0.46331034     0.73890
C415        C  0.61165895  0.45579251  0.45661500    -0.07200
C416        C  0.53433251  0.64582890  0.44130382    -0.06760
N417        N  0.51110951  0.53170427  0.60584384    -0.26290
N418        N  0.52819288  0.54480493  0.37481711    -0.47050
H419        H  0.68840912  0.64939376  0.48907125     0.06600
C420        C  0.47599472  0.36166309  0.57611889    -0.07170
Cl421      Cl  0.50552321  0.50404038  0.50894294    -0.50170
C422        C  0.33880428  0.34099874  0.46197068     0.42360
H423        H  0.54695583  0.58662479  0.65515374     0.06570
N424        N  0.51451824  0.36078544  0.51568025    -0.46880
C425        C  0.49085444  0.45525846  0.78095027    -0.20550
C426        C  0.48297778  0.49130502  0.80224066    -0.07120
C427        C  0.48449495  0.53121926  0.77963685     0.13750
C428        C  0.49414947  0.53420489  0.73659305    -0.20610
C429        C  0.50243603  0.49845727  0.71530353    -0.07120
C430        C  0.50070422  0.45838490  0.73781805     0.13740
C431        C  0.51093659  0.41979231  0.71689690    -0.23960
H432        H  0.49082271  0.42526592  0.79830650     0.15020
H433        H  0.49440966  0.56438717  0.71937698     0.15050
C434        C  0.47485949  0.57030799  0.80044973    -0.23900
H435        H  0.51116604  0.39304977  0.73966262     0.05270
H436        H  0.54854591  0.43864224  0.70133123     0.08490
H437        H  0.48107765  0.39773407  0.69350063     0.08490
H438        H  0.50550249  0.59312952  0.82302496     0.08480
H439        H  0.43779657  0.55184054  0.81686834     0.08480
H440        H  0.47377542  0.59643848  0.77749393     0.05250
C441        C  0.55463176  0.50553873  0.24130944    -0.20550
C442        C  0.52633095  0.51982602  0.21641938    -0.07120
C443        C  0.48897674  0.52883491  0.23506218     0.13750
C444        C  0.48128886  0.52389758  0.27841803    -0.20610
C445        C  0.50937101  0.50927136  0.30322749    -0.07120
C446        C  0.54683654  0.50044911  0.28463074     0.13740
C447        C  0.57897344  0.48619310  0.31045725    -0.23960
H448        H  0.58260732  0.49793524  0.22672036     0.15020
H449        H  0.45292759  0.53096837  0.29297934     0.15050
C450        C  0.45635395  0.54240146  0.20918322    -0.23900
H451        H  0.60723665  0.48193693  0.29106707     0.05270
H452        H  0.55461537  0.44996229  0.32590537     0.08490
H453        H  0.59984463  0.51563301  0.33457827     0.08490
H454        H  0.43509359  0.51240492  0.18556672     0.08480
H455        H  0.48046384  0.57824700  0.19311782     0.08480
H456        H  0.42839040  0.54707194  0.22865345     0.05250
C457        C  0.54710602  0.75672167  0.43740403    -0.20550
C458        C  0.50440812  0.71437406  0.45318492    -0.07120
C459        C  0.45969479  0.71721270  0.46018692     0.13750
C460        C  0.45920535  0.76223226  0.45250354    -0.20610
C461        C  0.50259303  0.80574571  0.43859544    -0.07120
C462        C  0.54710884  0.80225120  0.43052084     0.13740
C463        C  0.59514068  0.84614317  0.41476203    -0.23960
H464        H  0.58140593  0.75474209  0.43177466     0.15020
H465        H  0.42457402  0.76335816  0.45828988     0.15050
C466        C  0.41176506  0.67220727  0.47482278    -0.23900
H467        H  0.62499849  0.83595873  0.40806988     0.05270
H468        H  0.61050097  0.87651928  0.43875529     0.08490
H469        H  0.58741102  0.85985801  0.38542446     0.08490
H470        H  0.41701267  0.66239087  0.50683077     0.08480
H471        H  0.40188034  0.63986527  0.45333660     0.08480
H472        H  0.37920731  0.67925932  0.47537148     0.05250
C473        C  0.46764339  0.20181685  0.57177460    -0.20550
C474        C  0.51596190  0.20540648  0.57311367    -0.07120
C475        C  0.55912958  0.25446869  0.57104940     0.13750
C476        C  0.55254329  0.29652796  0.56545153    -0.20610
C477        C  0.50448966  0.29229982  0.56313380    -0.07120
C478        C  0.46143174  0.24428226  0.56701683     0.13740
C479        C  0.40875148  0.23737518  0.56455635    -0.23960
H480        H  0.43407605  0.16523634  0.57371583     0.15020
H481        H  0.58550831  0.33342490  0.56249197     0.15050
C482        C  0.61270322  0.26423928  0.57458183    -0.23900
H483        H  0.37928994  0.19736137  0.56718569     0.05270
H484        H  0.40350023  0.25116907  0.53425325     0.08490
H485        H  0.40281363  0.25849423  0.59042327     0.08490
H486        H  0.62233894  0.24861213  0.54683675     0.08480
H487        H  0.61733281  0.24813356  0.60383434     0.08480
H488        H  0.64063279  0.30494773  0.57563550     0.05250
C489        C  0.48606885  0.95837508  0.77760330    -0.20550
C490        C  0.52257448  0.00397405  0.79616787    -0.07120
C491        C  0.55653510  0.04302778  0.77026385     0.13750
C492        C  0.55445547  0.03463096  0.72686124    -0.20610
C493        C  0.51868649  0.98848743  0.70877601    -0.07120
C494        C  0.48376452  0.95016243  0.73445461     0.13740
C495        C  0.44478466  0.90002787  0.71661455    -0.23960
H496        H  0.45847775  0.92858279  0.79673923     0.15020
H497        H  0.58044478  0.06461871  0.70691300     0.15050
C498        C  0.59529807  0.09314054  0.78805372    -0.23900
H499        H  0.42195972  0.87351369  0.74145451     0.05270
H500        H  0.46398988  0.88299626  0.69840939     0.08490
H501        H  0.41823324  0.90470947  0.69604487     0.08490
H502        H  0.62007420  0.08811992  0.81046550     0.08480
H503        H  0.57591524  0.11138210  0.80419444     0.08480
H504        H  0.61975357  0.11873310  0.76331382     0.05250
C505        C  0.52842758  0.04542017  0.22717054    -0.20550
C506        C  0.48701130  0.00299010  0.20903656    -0.07120
C507        C  0.44977698  0.96689095  0.23506793     0.13750
C508        C  0.45373761  0.97528765  0.27845573    -0.20610
C509        C  0.49440742  0.01864929  0.29642159    -0.07120
C510        C  0.53264087  0.05371344  0.27035951     0.13740
C511        C  0.57730689  0.10066055  0.28764034    -0.23960
H512        H  0.55806478  0.07261049  0.20745786     0.15020
H513        H  0.42502278  0.94741320  0.29836002     0.15050
C514        C  0.40538520  0.92027179  0.21725962    -0.23900
H515        H  0.60188963  0.12525710  0.26245556     0.05270
H516        H  0.60106290  0.09082854  0.30715959     0.08490
H517        H  0.56373034  0.12235528  0.30666025     0.08490
H518        H  0.41909501  0.89742607  0.20013949     0.08480
H519        H  0.38381288  0.93065884  0.19561784     0.08480
H520        H  0.37906893  0.89669346  0.24208146     0.05250
C521        C  0.55955667  0.79981198  0.94590326    -0.20550
C522        C  0.51543823  0.80338955  0.94236158    -0.07120
C523        C  0.46797804  0.75924757  0.93750196     0.13750
C524        C  0.46554874  0.71242433  0.94002119    -0.20610
C525        C  0.50942923  0.70909496  0.94637240    -0.07120
C526        C  0.55721040  0.75310754  0.94729003     0.13740
C527        C  0.60549540  0.75095427  0.95178440    -0.23960
H528        H  0.59579791  0.83378748  0.94964450     0.15020
H529        H  0.42907574  0.67836396  0.93902789     0.15050
C530        C  0.41958227  0.76118266  0.93248665    -0.23900
H531        H  0.63932948  0.78890941  0.95418848     0.05270
H532        H  0.61050717  0.73126907  0.92430584     0.08490
H533        H  0.60349767  0.73030150  0.98023382     0.08490
H534        H  0.42166079  0.78178998  0.90377899     0.08480
H535        H  0.41364582  0.78027417  0.95997238     0.08480
H536        H  0.38610674  0.72308490  0.92958398     0.05250
C537        C  0.54141482  0.24545323  0.06026886    -0.20550
C538        C  0.49309819  0.20392945  0.06587763    -0.07120
C539        C  0.45181440  0.21104011  0.07635709     0.13750
C540        C  0.45915527  0.25991064  0.07863230    -0.20610
C541        C  0.50652309  0.30118521  0.06926497    -0.07120
C542        C  0.54847959  0.29416234  0.06126723     0.13740
C543        C  0.60025695  0.33789737  0.05246756    -0.23960
H544        H  0.57293847  0.23952409  0.05223971     0.15020
H545        H  0.42701503  0.26556680  0.08443836     0.15050
C546        C  0.39981863  0.16701331  0.08339861    -0.23900
H547        H  0.62898575  0.32576722  0.04763392     0.05270
H548        H  0.61259442  0.36483642  0.07923051     0.08490
H549        H  0.59917647  0.35715842  0.02385709     0.08490
H550        H  0.40121332  0.14438396  0.10945846     0.08480
H551        H  0.38668134  0.14327425  0.05470735     0.08480
H552        H  0.37170470  0.17913106  0.09140791     0.05250
C553        C  0.75619261  0.21906529  0.49320366    -0.20550
C554        C  0.71356086  0.21863331  0.47576238    -0.07120
C555        C  0.70801487  0.26142190  0.48040965     0.13750
C556        C  0.74416116  0.30298825  0.50313195    -0.20610
C557        C  0.78713073  0.30389953  0.52035844    -0.07120
C558        C  0.79318652  0.26123991  0.51528216     0.13740
C559        C  0.83845090  0.26006062  0.53292686    -0.23960
H560        H  0.75886385  0.18509162  0.49175654     0.15020
H561        H  0.74055040  0.33643758  0.50531372     0.15050
C562        C  0.66335513  0.26286401  0.46151550    -0.23900
H563        H  0.83728146  0.22388276  0.52590227     0.05270
H564        H  0.83927836  0.26525924  0.56732730     0.08490
H565        H  0.87387801  0.29047956  0.51947598     0.08490
H566        H  0.62725656  0.23254269  0.47422353     0.08480
H567        H  0.66360216  0.25761019  0.42717137     0.08480
H568        H  0.66458682  0.29915627  0.46805317     0.05250
C569        C  0.26758287  0.71126536  0.49601611    -0.20550
C570        C  0.22356980  0.71121365  0.48276565    -0.07120
C571        C  0.21729751  0.75295198  0.49285432     0.13750
C572        C  0.25561448  0.79378561  0.51533864    -0.20610
C573        C  0.29904390  0.79295928  0.52924895    -0.07120
C574        C  0.30433847  0.75066851  0.52014674     0.13740
C575        C  0.34968433  0.74776717  0.53555191    -0.23960
H576        H  0.27159533  0.67861929  0.48955435     0.15020
H577        H  0.25291894  0.82746125  0.52028833     0.15050
C578        C  0.17008445  0.75416066  0.48056981    -0.23900
H579        H  0.34716248  0.71136888  0.52723319     0.05270
H580        H  0.35180362  0.75187816  0.57006933     0.08490
H581        H  0.38509949  0.77804033  0.52187189     0.08490
H582        H  0.13640652  0.72311199  0.49564241     0.08480
H583        H  0.16544831  0.75015974  0.44616126     0.08480
H584        H  0.17189976  0.78995921  0.49027199     0.05250
C585        C  0.77448360  0.49100011  0.40928507    -0.20550
C586        C  0.80976048  0.51046208  0.44212496    -0.07120
C587        C  0.79463369  0.52332225  0.48035920     0.13750
C588        C  0.74678674  0.52043870  0.48341468    -0.20610
C589        C  0.71212485  0.50213079  0.45023778    -0.07120
C590        C  0.72578958  0.48619327  0.41303417     0.13740
C591        C  0.68931796  0.46485361  0.37698832    -0.23960
H592        H  0.78508333  0.47941472  0.38052157     0.15020
H593        H  0.73586340  0.53123192  0.51245933     0.15050
C594        C  0.82614739  0.53692494  0.51945137    -0.23900
H595        H  0.70623442  0.45519994  0.34993840     0.05270
H596        H  0.67841347  0.49262201  0.36671993     0.08490
H597        H  0.65480949  0.43016084  0.38664685     0.08490
H598        H  0.86361198  0.53959953  0.51450748     0.08480
H599        H  0.80550413  0.50788073  0.54320739     0.08480
H600        H  0.83185603  0.57315528  0.53225036     0.05250
C601        C  0.20448730  0.45989599  0.57769828    -0.20550
C602        C  0.20140757  0.50252046  0.56671316    -0.07120
C603        C  0.24662177  0.54522700  0.55314588     0.13750
C604        C  0.29270531  0.54440965  0.55192611    -0.20610
C605        C  0.29599214  0.50220176  0.56338058    -0.07120
C606        C  0.25075422  0.45902992  0.57621245     0.13740
C607        C  0.25060286  0.41197886  0.58914859    -0.23960
H608        H  0.17042772  0.42692139  0.58793690     0.15020
H609        H  0.32659423  0.57726925  0.54129312     0.15050
C610        C  0.24724771  0.59186583  0.53864178    -0.23900
H611        H  0.21247632  0.38283525  0.59966540     0.05270
H612        H  0.27739923  0.42054561  0.61543199     0.08490
H613        H  0.26155136  0.39588324  0.56234482     0.08490
H614        H  0.23722084  0.60950481  0.56483398     0.08480
H615        H  0.22037831  0.58240662  0.51228856     0.08480
H616        H  0.28536455  0.62006448  0.52741087     0.05250
C617        C  0.95706371  0.52450248  0.73510896    -0.20550
C618        C  0.99220909  0.52071805  0.70898574    -0.07120
C619        C  0.03631596  0.52355315  0.72634813     0.13750
C620        C  0.04369202  0.52922837  0.76981858    -0.20610
C621        C  0.00768319  0.53148812  0.79634074    -0.07120
C622        C  0.96399909  0.52964551  0.77855587     0.13740
C623        C  0.92465603  0.53374490  0.80495459    -0.23960
H624        H  0.92379401  0.52306535  0.72140804     0.15020
H625        H  0.07683324  0.53009580  0.78318114     0.15050
C626        C  0.07518741  0.51975944  0.69911485    -0.23900
H627        H  0.89574924  0.53606187  0.78552385     0.05270
H628        H  0.94309599  0.56803283  0.82498464     0.08490
H629        H  0.90423165  0.50023304  0.82464585     0.08490
H630        H  0.09128042  0.55086583  0.67657287     0.08480
H631        H  0.05723324  0.48344444  0.68171352     0.08480
H632        H  0.10696928  0.52199386  0.71775694     0.05250
C633        C  0.04623446  0.48252464  0.22502735    -0.20550
C634        C  0.00204670  0.48027359  0.20891907    -0.07120
C635        C  0.96817329  0.48528995  0.23693140     0.13750
C636        C  0.97939795  0.49195946  0.27982278    -0.20610
C637        C  0.02356654  0.49429496  0.29543041    -0.07120
C638        C  0.05730337  0.48943486  0.26789114     0.13740
C639        C  0.10505571  0.49186389  0.28380553    -0.23960
H640        H  0.07272463  0.47955582  0.20379614     0.15020
H641        H  0.95362055  0.49559224  0.30146901     0.15050
C642        C  0.92125964  0.48566231  0.22238082    -0.23900
H643        H  0.12756244  0.48758366  0.25812154     0.05270
H644        H  0.09527248  0.46139175  0.30635895     0.08490
H645        H  0.12898018  0.52858693  0.29966758     0.08490
H646        H  0.89373026  0.44821258  0.20961672     0.08480
H647        H  0.93131372  0.51484532  0.19850926     0.08480
H648        H  0.90199260  0.49409571  0.24839427     0.05250
C649        C  0.76308625  0.29929539  0.00034745    -0.20550
C650        C  0.79962088  0.29139326  0.02031388    -0.07120
C651        C  0.79447790  0.24332171  0.02004485     0.13750
C652        C  0.75422233  0.20455378  0.99834210    -0.20610
C653        C  0.71662163  0.21161912  0.97935986    -0.07120
C654        C  0.72087980  0.25957761  0.98052188     0.13740
C655        C  0.68071483  0.26872530  0.96206640    -0.23960
H656        H  0.76860475  0.33697432  0.99908274     0.15020
H657        H  0.74966981  0.16718564  0.99913952     0.15050
C658        C  0.83092477  0.23274141  0.04363277    -0.23900
H659        H  0.69042563  0.30857232  0.96567884     0.05270
H660        H  0.64390116  0.24545264  0.97797237     0.08490
H661        H  0.67673984  0.25912190  0.92824650     0.08490
H662        H  0.82940229  0.24096518  0.07732896     0.08480
H663        H  0.87016564  0.25650676  0.03237571     0.08480
H664        H  0.82144113  0.19295253  0.04011344     0.05250
C665        C  0.20797572  0.76221354  0.99784525    -0.20550
C666        C  0.21033445  0.72097408  0.98082341    -0.07120
C667        C  0.25618338  0.71978296  0.98313659     0.13750
C668        C  0.29675445  0.75726114  0.00624417    -0.20610
C669        C  0.29305862  0.79700499  0.02526089    -0.07120
C670        C  0.24843671  0.79989720  0.02026402     0.13740
C671        C  0.24420840  0.84379236  0.03771108    -0.23960
H672        H  0.17310514  0.76351823  0.99521618     0.15020
H673        H  0.33279044  0.75777464  0.00669589     0.15050
C674        C  0.26295160  0.68036632  0.96008978    -0.23900
H675        H  0.20668811  0.84019715  0.03113499     0.05270
H676        H  0.27337292  0.87919688  0.02354718     0.08490
H677        H  0.24968960  0.84627410  0.07204070     0.08490
H678        H  0.25773205  0.68275202  0.92614550     0.08480
H679        H  0.23457353  0.64283775  0.97080950     0.08480
H680        H  0.30127817  0.68508879  0.96503878     0.05250
C681        C  0.77082804  0.50854556  0.98358386    -0.20550
C682        C  0.79359793  0.49916192  0.94846719    -0.07120
C683        C  0.76721719  0.48663883  0.90979605     0.13750
C684        C  0.71878523  0.48224482  0.90806531    -0.20610
C685        C  0.69631969  0.49006978  0.94361162    -0.07120
C686        C  0.72274339  0.50404955  0.98164604     0.13740
C687        C  0.70010313  0.51396052  0.02037594    -0.23960
H688        H  0.79035185  0.51902892  0.01330538     0.15020
H689        H  0.69822685  0.47265946  0.87879933     0.15050
C690        C  0.78889021  0.47804749  0.87010194    -0.23900
H691        H  0.72564793  0.52373132  0.04775302     0.05270
H692        H  0.66372040  0.48003484  0.02802781     0.08490
H693        H  0.69311287  0.54572407  0.01518389     0.08490
H694        H  0.79034090  0.44274540  0.87213920     0.08480
H695        H  0.82708514  0.51046583  0.86426366     0.08480
H696        H  0.76492200  0.47384028  0.84265810     0.05250
C697        C  0.22023973  0.47229923  0.08427030    -0.20550
C698        C  0.21700122  0.50901132  0.06147084    -0.07120
C699        C  0.26182669  0.55159320  0.04847799     0.13750
C700        C  0.30890420  0.55551781  0.05677040    -0.20610
C701        C  0.31253114  0.51776011  0.07778490    -0.07120
C702        C  0.26748184  0.47644132  0.09333832     0.13740
C703        C  0.26729297  0.43664533  0.12036093    -0.23960
H704        H  0.18568998  0.44018270  0.09510026     0.15020
H705        H  0.34285578  0.58734053  0.04492415     0.15050
C706        C  0.26006707  0.59235023  0.02467717    -0.23900
H707        H  0.25063538  0.40045528  0.10280131     0.05270
H708        H  0.24385506  0.43190584  0.14856334     0.08490
H709        H  0.30534643  0.44625346  0.13188559     0.08490
H710        H  0.23946364  0.60779360  0.04302791     0.08480
H711        H  0.24045170  0.57655117  0.99456741     0.08480
H712        H  0.29864109  0.62364272  0.01783145     0.05250
C713        C  0.76655455  0.72171862  0.55389253    -0.20550
C714        C  0.71974297  0.71836765  0.56429668    -0.07120
C715        C  0.72035277  0.76257336  0.57897856     0.13750
C716        C  0.76685166  0.80850746  0.58134425    -0.20610
C717        C  0.81367625  0.81219360  0.56979196    -0.07120
C718        C  0.81306114  0.76730760  0.55674065     0.13740
C719        C  0.86085221  0.76692337  0.54412515    -0.23960
H720        H  0.76665128  0.68823000  0.54257860     0.15020
H721        H  0.76637103  0.84203590  0.59182954     0.15050
C722        C  0.67188185  0.76219184  0.59042005    -0.23900
H723        H  0.85306440  0.72896709  0.53420338     0.05270
H724        H  0.88744305  0.77885139  0.57091199     0.08490
H725        H  0.87886569  0.79227073  0.51745565     0.08490
H726        H  0.65325326  0.73639594  0.61672376     0.08480
H727        H  0.64599164  0.74972093  0.56311315     0.08480
H728        H  0.67882770  0.79996691  0.60029436     0.05250
C729        C  0.23491103  0.22811493  0.39928730    -0.20550
C730        C  0.19977166  0.20129417  0.43078459    -0.07120
C731        C  0.21034705  0.22065946  0.47200836     0.13750
C732        C  0.25509151  0.26613360  0.48074354    -0.20610
C733        C  0.29105373  0.29322615  0.44953860    -0.07120
C734        C  0.28022094  0.27361619  0.40804831     0.13740
C735        C  0.31579277  0.30057903  0.37267441    -0.23960
H736        H  0.22706463  0.21314243  0.36767440     0.15020
H737        H  0.26233652  0.27959593  0.51271304     0.15050
C738        C  0.17502569  0.19237393  0.50724116    -0.23900
H739        H  0.30048051  0.28136857  0.34221099     0.05270
H740        H  0.35264350  0.30193505  0.37760564     0.08490
H741        H  0.32181789  0.33926142  0.37078779     0.08490
H742        H  0.17239299  0.15513818  0.51002224     0.08480
H743        H  0.13664321  0.18682535  0.50107886     0.08480
H744        H  0.18832142  0.21263781  0.53759622     0.05250
C745        C  0.71175954  0.94404340  0.51302775    -0.20550
C746        C  0.71267170  0.99003418  0.51515524    -0.07120
C747        C  0.75050025  0.03129692  0.49293119     0.13750
C748        C  0.78635137  0.02523383  0.46937736    -0.20610
C749        C  0.78548386  0.97916475  0.46766802    -0.07120
C750        C  0.74696100  0.93783557  0.48905874     0.13740
C751        C  0.74324224  0.88692295  0.48825595    -0.23960
H752        H  0.68101303  0.91159067  0.52781254     0.15020
H753        H  0.81726926  0.05762490  0.45471976     0.15050
C754        C  0.75314051  0.08170682  0.49228350    -0.23900
H755        H  0.70528285  0.85845560  0.47651934     0.05270
H756        H  0.74823153  0.87693243  0.52030957     0.08490
H757        H  0.77208950  0.88541993  0.46763252     0.08490
H758        H  0.72443916  0.08373288  0.51257756     0.08480
H759        H  0.74739850  0.09017374  0.45990200     0.08480
H760        H  0.79104244  0.11114165  0.50332107     0.05250
C761        C  0.22877153  0.99088617  0.52608897    -0.20550
C762        C  0.22971415  0.03697465  0.52500263    -0.07120
C763        C  0.26970554  0.07772713  0.50412778     0.13750
C764        C  0.30755543  0.07135041  0.48471723    -0.20610
C765        C  0.30661883  0.02540741  0.48563190    -0.07120
C766        C  0.26679369  0.98453069  0.50651622     0.13740
C767        C  0.26499035  0.93457513  0.50887149    -0.23960
H768        H  0.19659372  0.95895947  0.54002407     0.15020
H769        H  0.33953339  0.10332085  0.47056725     0.15050
C770        C  0.27259597  0.12811160  0.50080977    -0.23900
H771        H  0.23078379  0.90664339  0.52577046     0.05270
H772        H  0.29874052  0.93866103  0.52561028     0.08490
H773        H  0.26412242  0.91964635  0.47689119     0.08490
H774        H  0.24205728  0.13023870  0.51847636     0.08480
H775        H  0.26990417  0.13602312  0.46754024     0.08480
H776        H  0.30937063  0.15776876  0.51351737     0.05250
C777        C  0.96205279  0.75403196  0.48751342    -0.20550
C778        C  0.00808224  0.79768419  0.48087576    -0.07120
C779        C  0.05337395  0.80212449  0.49720078     0.13750
C780        C  0.05135235  0.76175625  0.51883489    -0.20610
C781        C  0.00488540  0.71816233  0.52546826    -0.07120
C782        C  0.95978217  0.71496321  0.51047404     0.13740
C783        C  0.90903514  0.66927612  0.51781332    -0.23960
H784        H  0.92712439  0.75200650  0.47710454     0.15020
H785        H  0.08613070  0.76325701  0.52888267     0.15050
C786        C  0.10330902  0.84979083  0.49276275    -0.23900
H787        H  0.87744557  0.67280493  0.50417460     0.05270
H788        H  0.90235026  0.66334863  0.55186870     0.08490
H789        H  0.90817155  0.63597613  0.50302626     0.08490
H790        H  0.10142892  0.88147842  0.50836819     0.08480
H791        H  0.11210265  0.85811269  0.45919421     0.08480
H792        H  0.13486766  0.84678427  0.50715627     0.05250
C793        C  0.97084290  0.21470834  0.49200946    -0.20550
C794        C  0.01411120  0.22066299  0.51292933    -0.07120
C795        C  0.05845814  0.26769547  0.51375093     0.13750
C796        C  0.05846892  0.30792052  0.49426221    -0.20610
C797        C  0.01509538  0.30244242  0.47409871    -0.07120
C798        C  0.97097124  0.25510644  0.47215481     0.13740
C799        C  0.92425621  0.24717680  0.44941716    -0.23960
H800        H  0.93796909  0.17760838  0.48906916     0.15020
H801        H  0.09174023  0.34482455  0.49686292     0.15050
C802        C  0.10602258  0.27530117  0.53486803    -0.23900
H803        H  0.89314098  0.20771776  0.45115589     0.05270
H804        H  0.93351456  0.25646447  0.41603534     0.08490
H805        H  0.91022905  0.27149089  0.46308981     0.08490
H806        H  0.11994603  0.25191900  0.51914517     0.08480
H807        H  0.09785974  0.26458644  0.56809756     0.08480
H808        H  0.13684051  0.31495597  0.53374996     0.05250
C809        C  0.97495593  0.98186475  0.71461151    -0.20550
C810        C  0.01480763  0.02876756  0.70272032    -0.07120
C811        C  0.04345863  0.06454750  0.73337605     0.13750
C812        C  0.03238521  0.05248607  0.77547825    -0.20610
C813        C  0.99316327  0.00507204  0.78821763    -0.07120
C814        C  0.96361751  0.96946051  0.75697892     0.13740
C815        C  0.91994932  0.91885819  0.76744658    -0.23960
H816        H  0.95284204  0.95470000  0.69050876     0.15020
H817        H  0.05543158  0.08065453  0.79853538     0.15050
C818        C  0.08616066  0.11532874  0.72157879    -0.23900
H819        H  0.89809924  0.89843517  0.73916126     0.05270
H820        H  0.89354055  0.92308376  0.78923935     0.08490
H821        H  0.93442928  0.89557175  0.78138191     0.08490
H822        H  0.07118187  0.13495841  0.70244803     0.08480
H823        H  0.11502597  0.11090131  0.70322781     0.08480
H824        H  0.10508889  0.13915111  0.74945698     0.05250
C825        C  0.01555490  0.03173929  0.27353892    -0.20550
C826        C  0.99795417  0.98301749  0.28807606    -0.07120
C827        C  0.99299034  0.94515044  0.25981114     0.13750
C828        C  0.00469112  0.95673248  0.21758495    -0.20610
C829        C  0.02075116  0.00515695  0.20238829    -0.07120
C830        C  0.02710056  0.04349609  0.23125702     0.13740
C831        C  0.04478643  0.09655732  0.21855588    -0.23960
H832        H  0.02040282  0.06102435  0.29556249     0.15020
H833        H  0.99984874  0.92707764  0.19599003     0.15050
C834        C  0.97321076  0.89199086  0.27357100    -0.23900
H835        H  0.04664484  0.12070943  0.24551521     0.05270
H836        H  0.01794957  0.09739776  0.19571104     0.08490
H837        H  0.08362277  0.11306242  0.20540676     0.08490
H838        H  0.93551320  0.87793472  0.28853416     0.08480
H839        H  0.99982507  0.89016806  0.29599506     0.08480
H840        H  0.96883759  0.86655281  0.24686599     0.05250
C841        C  0.76519926  0.70980358  0.00703603    -0.20550
C842        C  0.72193970  0.70656784  0.02657362    -0.07120
C843        C  0.71380454  0.74806589  0.02561317     0.13750
C844        C  0.74610351  0.78931109  0.00159533    -0.20610
C845        C  0.78914726  0.79254795  0.98158364    -0.07120
C846        C  0.79923265  0.75237647  0.98494282     0.13740
C847        C  0.84568750  0.75399055  0.96591119    -0.23960
H848        H  0.77102096  0.67763156  0.00751301     0.15020
H849        H  0.73972596  0.82111141  0.00070505     0.15050
C850        C  0.67218156  0.75000393  0.05037846    -0.23900
H851        H  0.84677791  0.71885198  0.97128329     0.05270
H852        H  0.88047030  0.78528281  0.97998320     0.08490
H853        H  0.84584497  0.75900853  0.93170564     0.08490
H854        H  0.67697448  0.74524260  0.08398067     0.08480
H855        H  0.63441878  0.72018562  0.03994391     0.08480
H856        H  0.67302633  0.78639458  0.04700210     0.05250
C857        C  0.20572652  0.24717610  0.01835828    -0.20550
C858        C  0.21717697  0.20811945  0.01977827    -0.07120
C859        C  0.26474593  0.21616130  0.00514041     0.13750
C860        C  0.29933063  0.26265453  0.98895104    -0.20610
C861        C  0.28821985  0.30186809  0.98804983    -0.07120
C862        C  0.24072233  0.29401702  0.00266169     0.13740
C863        C  0.22602388  0.33439440  0.00216320    -0.23960
H864        H  0.16850873  0.24057414  0.02782882     0.15020
H865        H  0.33647960  0.26913185  0.97933877     0.15050
C866        C  0.28034739  0.17650006  0.00626706    -0.23900
H867        H  0.19043643  0.32094232  0.98417885     0.05270
H868        H  0.25525684  0.36932722  0.98750135     0.08490
H869        H  0.21965632  0.34342994  0.03458551     0.08490
H870        H  0.28629928  0.16696095  0.97387727     0.08480
H871        H  0.25190598  0.14174011  0.02163489     0.08480
H872        H  0.31637787  0.19102649  0.02391447     0.05250
C873        C  0.80164447  0.05262363  0.07774315    -0.20550
C874        C  0.80520465  0.01437492  0.05612035    -0.07120
C875        C  0.76079657  0.97470546  0.03770274     0.13750
C876        C  0.71458090  0.97497869  0.04094144    -0.20610
C877        C  0.71096532  0.01348095  0.06233704    -0.07120
C878        C  0.75527396  0.05249868  0.08167315     0.13740
C879        C  0.75444942  0.09327001  0.10809087    -0.23960
H880        H  0.83536248  0.08251652  0.09238626     0.15020
H881        H  0.68098208  0.94495214  0.02625002     0.15050
C882        C  0.76165500  0.93233483  0.01378325    -0.23900
H883        H  0.78970273  0.11416351  0.12677523     0.05270
H884        H  0.72219037  0.07697682  0.13033337     0.08490
H885        H  0.75221816  0.12102600  0.08796118     0.08490
H886        H  0.77026713  0.90973640  0.03536250     0.08480
H887        H  0.79057198  0.94740121  0.98863571     0.08480
H888        H  0.72445381  0.90672089  0.99906583     0.05250
C889        C  0.23996210  0.03033178  0.95445361    -0.20550
C890        C  0.19801461  0.98590843  0.93938090    -0.07120
C891        C  0.20622758  0.94661554  0.92458665     0.13750
C892        C  0.25546776  0.95289627  0.92534665    -0.20610
C893        C  0.29724605  0.99703248  0.94076839    -0.07120
C894        C  0.28912221  0.03629169  0.95565557     0.13740
C895        C  0.33155327  0.08402655  0.97399657    -0.23960
H896        H  0.23421582  0.06064960  0.96590753     0.15020
H897        H  0.26121601  0.92274950  0.91359313     0.15050
C898        C  0.16410924  0.89819156  0.90698347    -0.23900
H899        H  0.31789579  0.10931099  0.98621925     0.05270
H900        H  0.36051736  0.10454980  0.94976460     0.08490
H901        H  0.34909440  0.07517923  0.00039837     0.08490
H902        H  0.14329936  0.90585326  0.88248253     0.08480
H903        H  0.13815838  0.87598818  0.93238665     0.08480
H904        H  0.17874041  0.87460403  0.89251950     0.05250
C905        C  0.95049737  0.70088365  0.07256273    -0.20550
C906        C  0.99516946  0.69879180  0.06435412    -0.07120
C907        C  0.03951278  0.74388203  0.05336524     0.13750
C908        C  0.03716960  0.78819305  0.04868182    -0.20610
C909        C  0.99240051  0.78977151  0.05579966    -0.07120
C910        C  0.94865935  0.74576535  0.06882414     0.13740
C911        C  0.89946390  0.74531554  0.07726178    -0.23960
H912        H  0.91653215  0.66709142  0.08164588     0.15020
H913        H  0.07057617  0.82201948  0.03860087     0.15050
C914        C  0.08930497  0.74594878  0.04472985    -0.23900
H915        H  0.86847844  0.70727668  0.08511649     0.05270
H916        H  0.88769068  0.75776848  0.04933882     0.08490
H917        H  0.90415929  0.77067933  0.10403084     0.08490
H918        H  0.08483037  0.72028468  0.01824799     0.08480
H919        H  0.10271215  0.73566152  0.07302225     0.08480
H920        H  0.11901583  0.78414734  0.03607210     0.05250
C921        C  0.05958108  0.30492555  0.92667819    -0.20550
C922        C  0.01531558  0.30805820  0.93394174    -0.07120
C923        C  0.96917056  0.26282338  0.94122919     0.13750
C924        C  0.96939201  0.21722107  0.94338318    -0.20610
C925        C  0.01375431  0.21458139  0.93736900    -0.07120
C926        C  0.05932485  0.25882605  0.92805709     0.13740
C927        C  0.10819139  0.25803214  0.92141566    -0.23960
H928        H  0.09487529  0.33880928  0.92044134     0.15020
H929        H  0.93462803  0.18318496  0.95080994     0.15050
C930        C  0.91952130  0.26175020  0.94856608    -0.23900
H931        H  0.14054233  0.29615203  0.91601733     0.05270
H932        H  0.10482562  0.23450448  0.89361575     0.08490
H933        H  0.11693476  0.24267645  0.94927335     0.08490
H934        H  0.90889204  0.27525230  0.92057633     0.08480
H935        H  0.92325684  0.28562616  0.97611386     0.08480
H936        H  0.88802536  0.22341240  0.95490272     0.05250
loop_ 
_geom_bond_atom_site_label_1 
_geom_bond_atom_site_label_2 
_geom_bond_distance 
_geom_bond_site_symmetry_2 
_ccdc_geom_bond_type 
C1           N19   1.348       .  A
C1           C38   1.466       .  S
C1          C925   1.484       .  S
N2           N19   1.323       .  A
N2           N24   1.320       .  A
N2          Co39   2.080   1_556  S
C3           N28   1.344       .  A
C3           C41   1.472       .  S
C3           H48   1.078       .  S
H4           C45   1.078       .  S
C5           N29   1.318   1_554  A
C5            C9   1.440   1_554  S
C5           H34   1.081       .  S
Co6          N24   2.101       .  S
Co6          N14   2.053       .  S
Co6          N46   2.038       .  S
Co6          N22   2.090       .  S
Co6         Cl50   2.408       .  S
N7           C45   1.351       .  A
N7           N14   1.318   1_665  A
N7           Co8   2.120       .  S
Co8          N11   2.106       .  S
Co8          N28   2.090   1_655  S
Co8          N15   2.091   1_556  S
Co8         Cl50   2.485   1_665  S
C9           N47   1.363       .  A
C9          C845   1.475       .  S
N10          N17   1.317   1_565  A
N10          N40   1.323       .  A
N10         Co43   2.075       .  S
N11          N29   1.317       .  A
N11          N47   1.330       .  A
N12          C41   1.351   1_545  A
N12          N22   1.325       .  A
H13          C38   1.081       .  S
N14          N35   1.315       .  A
N15          N33   1.321       .  A
N15          N20   1.325   1_655  A
C16          N20   1.350   1_655  A
C16          C44   1.465       .  S
C16         C909   1.486       .  S
N17          C32   1.348       .  A
N17         Co39   2.098   1_655  S
C18          N46   1.324       .  A
C18          C21   1.445   1_556  S
C18          H52   1.082       .  S
C21          N42   1.359       .  A
C21         C858   1.466       .  S
N22          N28   1.317   1_545  A
N23          C49   1.344       .  A
N23          N25   1.317   1_445  A
N23         Co39   2.099       .  S
N24          C38   1.346       .  A
N25          N53   1.318       .  A
N25         Co43   2.059       .  S
H26          C49   1.078       .  S
H27          C44   1.081       .  S
N29         Co43   2.032   1_556  S
N30          N42   1.327       .  A
N30          N46   1.317   1_554  A
N30         Co39   2.099       .  S
C31          N35   1.343   1_665  A
C31          C45   1.484       .  S
C31         C813   1.498   1_565  S
C32          C51   1.470       .  S
C32          H36   1.082       .  S
N33          C44   1.346       .  A
N33         Co43   2.098       .  S
C37          N53   1.348   1_445  A
C37          C49   1.477       .  S
C37         C829   1.494       .  S
Co39        Cl50   2.480   1_554  S
N40          C51   1.345   1_565  A
C41         C890   1.498       .  S
Co43        Cl50   2.407   1_664  S
C51         C874   1.489       .  S
C54          N72   1.352   1_565  A
C54          C91   1.462   1_655  S
C54         C826   1.480       .  S
N55          N72   1.322       .  A
N55          N77   1.318   1_645  A
N55         Co92   2.082       .  S
C56          N81   1.349   1_545  A
C56          C94   1.476       .  S
C56         H101   1.081       .  S
H57          C98   1.082       .  S
C58          N82   1.351       .  A
C58          C62   1.471       .  S
C58          H87   1.080       .  S
Co59         N77   2.074       .  S
Co59         N67   2.102       .  S
Co59         N99   2.099   1_565  S
Co59         N75   2.023   1_565  S
Co59       Cl103   2.441   1_565  S
N60          C98   1.316   1_455  A
N60          N67   1.318       .  A
N60         Co61   2.016       .  S
Co61         N64   2.113   1_455  S
Co61         N81   2.106       .  S
Co61         N68   2.074   1_565  S
Co61       Cl103   2.439   1_565  S
C62         N100   1.359       .  A
C62         C717   1.521       .  S
N63          N70   1.317       .  A
N63          N93   1.305   1_545  A
N63         Co96   2.020       .  S
N64          N82   1.315       .  A
N64         N100   1.332       .  A
N65          C94   1.329       .  A
N65          N75   1.306       .  A
H66          C91   1.081       .  S
N67          N88   1.330       .  A
N68          N86   1.318       .  A
N68          N73   1.322       .  A
C69          N73   1.348       .  A
C69          C97   1.460   1_455  S
C69         C810   1.473       .  S
N70          C85   1.351       .  A
N70         Co92   2.106       .  S
C71          N99   1.348       .  A
C71          C74   1.463       .  S
C71         H105   1.080       .  S
C74          N95   1.357       .  A
C74         C730   1.499       .  S
N75          N81   1.318   1_545  A
N76         C102   1.319       .  A
N76          N78   1.319   1_455  A
N76         Co92   2.025   1_455  S
N77          C91   1.339       .  A
N78         N106   1.330       .  A
N78         Co96   2.112       .  S
H79         C102   1.082       .  S
H80          C97   1.081       .  S
N82         Co96   2.110   1_565  S
N83          N95   1.332       .  A
N83          N99   1.315       .  A
N83         Co92   2.110   1_455  S
C84          N88   1.358       .  A
C84          C98   1.429   1_455  S
C84         C778   1.452       .  S
C85         C104   1.477   1_545  S
C85          H89   1.081       .  S
N86          C97   1.340   1_455  A
N86         Co96   2.075   1_455  S
C90         N106   1.360   1_455  A
C90         C102   1.432       .  S
C90         C794   1.454       .  S
Co92       Cl103   2.444   1_655  S
N93         C104   1.328       .  A
C94         C762   1.452       .  S
Co96       Cl103   2.438   1_655  S
C104        C749   1.452       .  S
C107        N125   1.350       .  A
C107        C144   1.461       .  S
C107        C698   1.474       .  S
N108        N125   1.323       .  A
N108        N130   1.321       .  A
N108       Co145   2.087   1_554  S
C109        N134   1.347       .  A
C109        C147   1.470       .  S
C109        H154   1.081       .  S
H110        C151   1.079       .  S
C111        N135   1.322       .  A
C111        C115   1.439   1_556  S
C111        H140   1.080       .  S
Co112       N130   2.092       .  S
Co112       N120   2.066       .  S
Co112       N152   2.042       .  S
Co112       N128   2.093       .  S
Co112      Cl156   2.413       .  S
N113        C151   1.344       .  A
N113        N120   1.317   1_655  A
N113       Co114   2.097       .  S
Co114       N117   2.096       .  S
Co114       N134   2.093       .  S
Co114       N121   2.063   1_554  S
Co114      Cl156   2.477   1_655  S
C115        N153   1.357       .  A
C115        C650   1.457       .  S
N116        N123   1.317   1_655  A
N116        N146   1.323       .  A
N116       Co149   2.083       .  S
N117        N135   1.318   1_554  A
N117        N153   1.328       .  A
N118        C147   1.352   1_455  A
N118        N128   1.325       .  A
H119        C144   1.081       .  S
N120        N141   1.321       .  A
N121        N139   1.316       .  A
N121        N126   1.317       .  A
C122        N126   1.349       .  A
C122        C150   1.475       .  S
C122        C682   1.494       .  S
N123        C138   1.349       .  A
N123       Co145   2.100       .  S
C124        N152   1.320       .  A
C124        C127   1.441   1_554  S
C124        H158   1.080       .  S
C127        N148   1.360       .  A
C127        C666   1.469       .  S
N128        N134   1.316   1_455  A
N129        C155   1.349       .  A
N129        N131   1.319   1_455  A
N129       Co145   2.113       .  S
N130        C144   1.342       .  A
N131        N159   1.318       .  A
N131       Co149   2.057       .  S
H132        C155   1.082       .  S
H133        C150   1.076       .  S
N135       Co149   2.042       .  S
N136        N148   1.330       .  A
N136        N152   1.318   1_556  A
N136       Co145   2.102       .  S
C137        N141   1.348   1_655  A
C137        C151   1.473       .  S
C137        C634   1.488   1_655  S
C138        C157   1.474       .  S
C138        H142   1.081       .  S
N139        C150   1.343       .  A
N139       Co149   2.088       .  S
C143        N159   1.343   1_455  A
C143        C155   1.476       .  S
C143        C621   1.486       .  S
Co145      Cl156   2.482   1_556  S
N146        C157   1.348   1_655  A
C147        C906   1.503       .  S
Co149      Cl156   2.411   1_656  S
C157        C922   1.502       .  S
C160        N178   1.332       .  A
C160        C197   1.472   1_455  S
C160        C797   1.454       .  S
N161        N178   1.307   1_655  A
N161        N183   1.318       .  A
N161       Co198   2.028       .  S
C162        N187   1.351       .  A
C162        C200   1.469       .  S
C162        H207   1.080       .  S
H163        C204   1.082       .  S
C164        N188   1.317       .  A
C164        C168   1.432       .  S
C164        H193   1.081       .  S
Co165       N183   2.095       .  S
Co165       N173   2.071   1_655  S
Co165       N205   2.032       .  S
Co165       N181   2.087       .  S
Co165      Cl209   2.430   1_655  S
N166        C204   1.343       .  A
N166        N173   1.318       .  A
N166       Co167   2.088       .  S
Co167       N170   2.119       .  S
Co167       N187   2.113   1_455  S
Co167       N174   2.022       .  S
Co167      Cl209   2.453       .  S
C168        N206   1.365       .  A
C168        C570   1.470       .  S
N169        N176   1.316       .  A
N169        N199   1.326       .  A
N169       Co202   2.090       .  S
N170        N188   1.318       .  A
N170        N206   1.333       .  A
N171        C200   1.348       .  A
N171        N181   1.328       .  A
H172        C197   1.081       .  S
N173        N194   1.322       .  A
N174        N192   1.319       .  A
N174        N179   1.305   1_455  A
C175        N179   1.329   1_455  A
C175        C203   1.472       .  S
C175        C781   1.452       .  S
N176        C191   1.352       .  A
N176       Co198   2.111   1_455  S
C177        N205   1.319       .  A
C177        C180   1.434       .  S
C177        H211   1.082       .  S
C180        N201   1.366       .  A
C180        C557   1.474       .  S
N181        N187   1.317       .  A
N182        C208   1.343       .  A
N182        N184   1.320   1_655  A
N182       Co198   2.091       .  S
N183        C197   1.349       .  A
N184        N212   1.322       .  A
N184       Co202   2.075       .  S
H185        C208   1.082       .  S
H186        C203   1.081       .  S
N188       Co202   2.029       .  S
N189        N201   1.334       .  A
N189        N205   1.318       .  A
N189       Co198   2.123       .  S
C190        N194   1.348       .  A
C190        C204   1.465       .  S
C190        C637   1.473       .  S
C191        C210   1.473       .  S
C191        H195   1.081       .  S
N192        C203   1.351       .  A
N192       Co202   2.101       .  S
C196        N212   1.347   1_655  A
C196        C208   1.464       .  S
C196        C618   1.476       .  S
Co198      Cl209   2.458   1_655  S
N199        C210   1.351       .  A
C200        C586   1.495       .  S
Co202      Cl209   2.428       .  S
C210        C602   1.510       .  S
C213        N231   1.356   1_565  A
C213        C250   1.460       .  S
C213        C893   1.497       .  S
N214        N231   1.328       .  A
N214        N236   1.317   1_545  A
N214       Co251   2.089       .  S
C215        N240   1.335       .  A
C215        C253   1.455       .  S
C215        H260   1.082   1_556  S
H216        C257   1.082       .  S
C217        N241   1.328       .  A
C217        C221   1.450   1_545  S
C217        H246   1.081       .  S
Co218       N236   2.088       .  S
Co218       N226   2.026   1_556  S
Co218       N258   2.043       .  S
Co218       N234   2.089       .  S
Co218      Cl262   2.390   1_566  S
N219        C257   1.351       .  A
N219        N226   1.318       .  A
N219       Co220   2.102       .  S
Co220       N223   2.102       .  S
Co220       N240   2.067   1_554  S
Co220       N227   2.097       .  S
Co220      Cl262   2.492   1_565  S
C221        N259   1.359       .  A
C221        C506   1.480   1_565  S
N222        N229   1.318       .  A
N222        N252   1.323       .  A
N222       Co255   2.077       .  S
N223        N241   1.317   1_565  A
N223        N259   1.329       .  A
N224        C253   1.351       .  A
N224        N234   1.326       .  A
H225        C250   1.081       .  S
N226        N247   1.306   1_554  A
N227        N245   1.316   1_565  A
N227        N232   1.329       .  A
C228        N232   1.359   1_545  A
C228        C256   1.459       .  S
C228        C877   1.495       .  S
N229        C244   1.338       .  A
N229       Co251   2.079   1_554  S
C230        N258   1.326       .  A
C230        C233   1.451   1_565  S
C230        H264   1.081       .  S
C233        N254   1.361       .  A
C233        C490   1.485       .  S
N234        N240   1.319       .  A
N235        C261   1.352       .  A
N235        N237   1.318   1_556  A
N235       Co251   2.101       .  S
N236        C250   1.340       .  A
N237        N265   1.306       .  A
N237       Co255   2.031       .  S
H238        C261   1.082       .  S
H239        C256   1.076       .  S
N241       Co255   2.046       .  S
N242        N254   1.330       .  A
N242        N258   1.317   1_545  A
N242       Co251   2.110       .  S
C243        N247   1.329   1_554  A
C243        C257   1.474       .  S
C243        C669   1.452       .  S
C244        C263   1.459       .  S
C244        H248   1.082   1_554  S
N245        C256   1.338       .  A
N245       Co255   2.082       .  S
C249        N265   1.331   1_556  A
C249        C261   1.477       .  S
C249        C653   1.462       .  S
Co251      Cl262   2.494   1_556  S
N252        C263   1.349       .  A
C253        C522   1.472       .  S
Co255      Cl262   2.388       .  S
C263        C538   1.466       .  S
C266        N284   1.360       .  A
C266        C303   1.475       .  S
C266        C474   1.522       .  S
N267        N284   1.331       .  A
N267        N289   1.313       .  A
N267       Co304   2.108   1_545  S
C268        N293   1.316       .  A
C268        C306   1.430       .  S
C268        H313   1.081       .  S
H269        C310   1.081       .  S
C270        N294   1.335   1_545  A
C270        C274   1.458       .  S
C270        H299   1.082   1_545  S
Co271       N289   2.096       .  S
Co271       N279   2.026       .  S
Co271       N311   2.064       .  S
Co271       N287   2.099       .  S
Co271      Cl315   2.435       .  S
N272        C310   1.356       .  A
N272        N279   1.320       .  A
N272       Co273   2.122       .  S
Co273       N276   2.080       .  S
Co273       N293   2.019   1_545  S
Co273       N280   2.107   1_545  S
Co273      Cl315   2.447       .  S
C274        N312   1.353       .  A
C274        C509   1.479       .  S
N275        N282   1.318   1_565  A
N275        N305   1.328   1_565  A
N275       Co308   2.101       .  S
N276        N294   1.317   1_545  A
N276        N312   1.323       .  A
N277        C306   1.359   1_545  A
N277        N287   1.329       .  A
H278        C303   1.074       .  S
N279        N300   1.308       .  A
N280        N298   1.316       .  A
N280        N285   1.331       .  A
C281        N285   1.356       .  A
C281        C309   1.473       .  S
C281        C461   1.519       .  S
N282        C297   1.320       .  A
N282       Co304   2.027   1_545  S
C283        N311   1.336       .  A
C283        C286   1.457   1_545  S
C283        H317   1.082       .  S
C286        N307   1.352       .  A
C286        C493   1.475       .  S
N287        N293   1.317   1_545  A
N288        C314   1.355       .  A
N288        N290   1.319       .  A
N288       Co304   2.119       .  S
N289        C303   1.344       .  A
N290        N318   1.307       .  A
N290       Co308   2.018       .  S
H291        C314   1.081       .  S
H292        C309   1.080       .  S
N294       Co308   2.062       .  S
N295        N307   1.323       .  A
N295        N311   1.319   1_565  A
N295       Co304   2.084       .  S
C296        N300   1.327       .  A
C296        C310   1.479       .  S
C296        C554   1.461       .  S
C297        C316   1.435       .  S
C297        H301   1.081       .  S
N298        C309   1.350       .  A
N298       Co308   2.108       .  S
C302        N318   1.327       .  A
C302        C314   1.478       .  S
C302        C573   1.459       .  S
Co304      Cl315   2.448   1_565  S
N305        C316   1.358       .  A
C306        C746   1.452       .  S
Co308      Cl315   2.431   1_565  S
C316        C765   1.452       .  S
C319        N337   1.346       .  A
C319        C356   1.471       .  S
C319        C701   1.484       .  S
N320        N337   1.321       .  A
N320        N342   1.317       .  A
N320       Co357   2.070       .  S
C321        N346   1.324   1_556  A
C321        C359   1.447   1_556  S
C321        H366   1.081       .  S
H322        C363   1.081       .  S
C323        N347   1.345       .  A
C323        C327   1.471       .  S
C323        H352   1.081       .  S
Co324       N342   2.090       .  S
Co324       N332   2.091   1_554  S
Co324       N364   2.099       .  S
Co324       N340   2.097       .  S
Co324      Cl368   2.470       .  S
N325        C363   1.340       .  A
N325        N332   1.319       .  A
N325       Co326   2.074       .  S
Co326       N329   2.060       .  S
Co326       N346   2.046   1_556  S
Co326       N333   2.068       .  S
Co326      Cl368   2.415   1_556  S
C327        N365   1.345       .  A
C327        C426   1.483       .  S
N328        N335   1.317   1_556  A
N328        N358   1.325       .  A
N328       Co361   2.090       .  S
N329        N347   1.318       .  A
N329        N365   1.319       .  A
N330        C359   1.360       .  A
N330        N340   1.327       .  A
H331        C356   1.081       .  S
N332        N353   1.324       .  A
N333        N351   1.317       .  A
N333        N338   1.321       .  A
C334        N338   1.344       .  A
C334        C362   1.461       .  S
C334        C685   1.464       .  S
N335        C350   1.327       .  A
N335       Co357   2.050       .  S
C336        N364   1.344       .  A
C336        C339   1.466       .  S
C336        H370   1.081       .  S
C339        N360   1.346       .  A
C339        C442   1.475       .  S
N340        N346   1.316       .  A
N341        C367   1.342       .  A
N341        N343   1.319       .  A
N341       Co357   2.080       .  S
N342        C356   1.343       .  A
N343        N371   1.320       .  A
N343       Co361   2.078   1_554  S
H344        C367   1.082       .  S
H345        C362   1.081       .  S
N347       Co361   2.100       .  S
N348        N360   1.322       .  A
N348        N364   1.320       .  A
N348       Co357   2.070       .  S
C349        N353   1.352       .  A
C349        C363   1.457       .  S
C349        C525   1.471       .  S
C350        C369   1.447   1_554  S
C350        H354   1.082       .  S
N351        C362   1.343       .  A
N351       Co361   2.081       .  S
C355        N371   1.347       .  A
C355        C367   1.461       .  S
C355        C541   1.467       .  S
Co357      Cl368   2.422       .  S
N358        C369   1.358       .  A
C359        C842   1.471       .  S
Co361      Cl368   2.466   1_556  S
C369        C861   1.463       .  S
C372        N390   1.351       .  A
C372        C409   1.473       .  S
C372        C605   1.506       .  S
N373        N390   1.327       .  A
N373        N395   1.322       .  A
N373       Co410   2.094       .  S
C374        N399   1.342       .  A
C374        C412   1.459       .  S
C374        H419   1.082       .  S
H375        C416   1.081       .  S
C376        N400   1.342       .  A
C376        C380   1.462       .  S
C376        H405   1.081       .  S
Co377       N395   2.115       .  S
Co377       N385   2.098       .  S
Co377       N417   2.100       .  S
Co377       N393   2.144       .  S
Co377      Cl421   2.475       .  S
N378        C416   1.351       .  A
N378        N385   1.321       .  A
N378       Co379   2.122       .  S
Co379       N382   2.086       .  S
Co379       N399   2.087       .  S
Co379       N386   2.107       .  S
Co379      Cl421   2.455       .  S
C380        N418   1.348       .  A
C380        C445   1.474       .  S
N381        N388   1.320       .  A
N381        N411   1.335       .  A
N381       Co414   2.133       .  S
N382        N400   1.323       .  A
N382        N418   1.324       .  A
N383        C412   1.366       .  A
N383        N393   1.337       .  A
H384        C409   1.081       .  S
N385        N406   1.328       .  A
N386        N404   1.324       .  A
N386        N391   1.329       .  A
C387        N391   1.352       .  A
C387        C415   1.463       .  S
C387        C589   1.491       .  S
N388        C403   1.340       .  A
N388       Co410   2.086       .  S
C389        N417   1.342       .  A
C389        C392   1.467       .  S
C389        H423   1.081       .  S
C392        N413   1.348       .  A
C392        C429   1.484       .  S
N393        N399   1.321       .  A
N394        C420   1.350       .  A
N394        N396   1.321       .  A
N394       Co410   2.113       .  S
N395        C409   1.346       .  A
N396        N424   1.328       .  A
N396       Co414   2.100       .  S
H397        C420   1.082       .  S
H398        C415   1.082       .  S
N400       Co414   2.093       .  S
N401        N413   1.323       .  A
N401        N417   1.323       .  A
N401       Co410   2.085       .  S
C402        N406   1.353       .  A
C402        C416   1.473       .  S
C402        C458   1.504       .  S
C403        C422   1.465       .  S
C403        H407   1.081       .  S
N404        C415   1.346       .  A
N404       Co414   2.107       .  S
C408        N424   1.352       .  A
C408        C420   1.470       .  S
C408        C477   1.498       .  S
Co410      Cl421   2.457       .  S
N411        C422   1.364       .  A
C412        C714   1.514       .  S
Co414      Cl421   2.474       .  S
C422        C733   1.517       .  S
C425        H432   1.084       .  S
C425        C426   1.404       .  A
C425        C430   1.407       .  A
C426        C427   1.416       .  A
C427        C428   1.403       .  A
C427        C434   1.509       .  S
C428        H433   1.084       .  S
C428        C429   1.403       .  A
C429        C430   1.416       .  A
C430        C431   1.508       .  S
C431        H435   1.111       .  S
C431        H436   1.111       .  S
C431        H437   1.109       .  S
C434        H438   1.109       .  S
C434        H439   1.110       .  S
C434        H440   1.111       .  S
C441        H448   1.084       .  S
C441        C442   1.400       .  A
C441        C446   1.405       .  A
C442        C443   1.415       .  A
C443        C444   1.406       .  A
C443        C450   1.508       .  S
C444        H449   1.084       .  S
C444        C445   1.400       .  A
C445        C446   1.414       .  A
C446        C447   1.508       .  S
C447        H451   1.110       .  S
C447        H452   1.110       .  S
C447        H453   1.110       .  S
C450        H454   1.110       .  S
C450        H455   1.110       .  S
C450        H456   1.111       .  S
C457        H464   1.084       .  S
C457        C458   1.405       .  A
C457        C462   1.418       .  A
C458        C459   1.415       .  A
C459        C460   1.414       .  A
C459        C466   1.508       .  S
C460        H465   1.081       .  S
C460        C461   1.411       .  A
C461        C462   1.426       .  A
C462        C463   1.506       .  S
C463        H467   1.111       .  S
C463        H468   1.108       .  S
C463        H469   1.110       .  S
C466        H470   1.110       .  S
C466        H471   1.110       .  S
C466        H472   1.109       .  S
C473        H480   1.084       .  S
C473        C474   1.414       .  A
C473        C478   1.416       .  A
C474        C475   1.430       .  A
C475        C476   1.414       .  A
C475        C482   1.504       .  S
C476        H481   1.085       .  S
C476        C477   1.399       .  A
C477        C478   1.414       .  A
C478        C479   1.506       .  S
C479        H483   1.111       .  S
C479        H484   1.111       .  S
C479        H485   1.109       .  S
C482        H486   1.105       .  S
C482        H487   1.110       .  S
C482        H488   1.111       .  S
C489        H496   1.082       .  S
C489        C490   1.411   1_565  A
C489        C494   1.397       .  A
C490        C491   1.411       .  A
C491        C492   1.406       .  A
C491        C498   1.506       .  S
C492        H497   1.084       .  S
C492        C493   1.408   1_545  A
C493        C494   1.405       .  A
C494        C495   1.509       .  S
C495        H499   1.111       .  S
C495        H500   1.110       .  S
C495        H501   1.109       .  S
C498        H502   1.110       .  S
C498        H503   1.110       .  S
C498        H504   1.111       .  S
C505        H512   1.083       .  S
C505        C506   1.408       .  A
C505        C510   1.398       .  A
C506        C507   1.408   1_545  A
C507        C508   1.405       .  A
C507        C514   1.506       .  S
C508        H513   1.083       .  S
C508        C509   1.410   1_565  A
C509        C510   1.409       .  A
C510        C511   1.509       .  S
C511        H515   1.111       .  S
C511        H516   1.109       .  S
C511        H517   1.110       .  S
C514        H518   1.110       .  S
C514        H519   1.110       .  S
C514        H520   1.111       .  S
C521        H528   1.085       .  S
C521        C522   1.400       .  A
C521        C526   1.400       .  A
C522        C523   1.416       .  A
C523        C524   1.405       .  A
C523        C530   1.507       .  S
C524        H529   1.085       .  S
C524        C525   1.400       .  A
C525        C526   1.412       .  A
C526        C527   1.505       .  S
C527        H531   1.111       .  S
C527        H532   1.109       .  S
C527        H533   1.105       .  S
C530        H534   1.110       .  S
C530        H535   1.110       .  S
C530        H536   1.111       .  S
C537        H544   1.084       .  S
C537        C538   1.402       .  A
C537        C542   1.401       .  A
C538        C539   1.408       .  A
C539        C540   1.403       .  A
C539        C546   1.506       .  S
C540        H545   1.084       .  S
C540        C541   1.404       .  A
C541        C542   1.410       .  A
C542        C543   1.508       .  S
C543        H547   1.111       .  S
C543        H548   1.110       .  S
C543        H549   1.110       .  S
C546        H550   1.111       .  S
C546        H551   1.109       .  S
C546        H552   1.111       .  S
C553        H560   1.084       .  S
C553        C554   1.406       .  A
C553        C558   1.408       .  A
C554        C555   1.408       .  A
C555        C556   1.400       .  A
C555        C562   1.509       .  S
C556        H561   1.085       .  S
C556        C557   1.407       .  A
C557        C558   1.414       .  A
C558        C559   1.506       .  S
C559        H563   1.111       .  S
C559        H564   1.110       .  S
C559        H565   1.109       .  S
C562        H566   1.110       .  S
C562        H567   1.110       .  S
C562        H568   1.111       .  S
C569        H576   1.082       .  S
C569        C570   1.403       .  A
C569        C574   1.398       .  A
C570        C571   1.415       .  A
C571        C572   1.409       .  A
C571        C578   1.506       .  S
C572        H577   1.084       .  S
C572        C573   1.406       .  A
C573        C574   1.408       .  A
C574        C575   1.508       .  S
C575        H579   1.108       .  S
C575        H580   1.110       .  S
C575        H581   1.110       .  S
C578        H582   1.110       .  S
C578        H583   1.110       .  S
C578        H584   1.110       .  S
C585        H592   1.083       .  S
C585        C586   1.406       .  A
C585        C590   1.413       .  A
C586        C587   1.420       .  A
C587        C588   1.411       .  A
C587        C594   1.506       .  S
C588        H593   1.084       .  S
C588        C589   1.403       .  A
C589        C590   1.414       .  A
C590        C591   1.506       .  S
C591        H595   1.110       .  S
C591        H596   1.110       .  S
C591        H597   1.110       .  S
C594        H598   1.107       .  S
C594        H599   1.111       .  S
C594        H600   1.108       .  S
C601        H608   1.084       .  S
C601        C602   1.407       .  A
C601        C606   1.415       .  A
C602        C603   1.423       .  A
C603        C604   1.409       .  A
C603        C610   1.504       .  S
C604        H609   1.083       .  S
C604        C605   1.402       .  A
C605        C606   1.423       .  A
C606        C607   1.507       .  S
C607        H611   1.111       .  S
C607        H612   1.110       .  S
C607        H613   1.109       .  S
C610        H614   1.109       .  S
C610        H615   1.110       .  S
C610        H616   1.110       .  S
C617        H624   1.084       .  S
C617        C618   1.396       .  A
C617        C622   1.405       .  A
C618        C619   1.415   1_655  A
C619        C620   1.407       .  A
C619        C626   1.508       .  S
C620        H625   1.084       .  S
C620        C621   1.404       .  A
C621        C622   1.421   1_455  A
C622        C623   1.509       .  S
C623        H627   1.111       .  S
C623        H628   1.110       .  S
C623        H629   1.109       .  S
C626        H630   1.110       .  S
C626        H631   1.110       .  S
C626        H632   1.111       .  S
C633        H640   1.084       .  S
C633        C634   1.409       .  A
C633        C638   1.405       .  A
C634        C635   1.420   1_455  A
C635        C636   1.406       .  A
C635        C642   1.506       .  S
C636        H641   1.084       .  S
C636        C637   1.401   1_655  A
C637        C638   1.405       .  A
C638        C639   1.505       .  S
C639        H643   1.110       .  S
C639        H644   1.111       .  S
C639        H645   1.111       .  S
C642        H646   1.108       .  S
C642        H647   1.110       .  S
C642        H648   1.111       .  S
C649        H656   1.085   1_554  S
C649        C650   1.406       .  A
C649        C654   1.405   1_554  A
C650        C651   1.404       .  A
C651        C652   1.393   1_554  A
C651        C658   1.508       .  S
C652        H657   1.086       .  S
C652        C653   1.406       .  A
C653        C654   1.411       .  A
C654        C655   1.505       .  S
C655        H659   1.111       .  S
C655        H660   1.110       .  S
C655        H661   1.110       .  S
C658        H662   1.110       .  S
C658        H663   1.106       .  S
C658        H664   1.111       .  S
C665        H672   1.081       .  S
C665        C666   1.401       .  A
C665        C670   1.394   1_556  A
C666        C667   1.410       .  A
C667        C668   1.405   1_556  A
C667        C674   1.502       .  S
C668        H673   1.084       .  S
C668        C669   1.405       .  A
C669        C670   1.409       .  A
C670        C671   1.510       .  S
C671        H675   1.109       .  S
C671        H676   1.110       .  S
C671        H677   1.110       .  S
C674        H678   1.110       .  S
C674        H679   1.103       .  S
C674        H680   1.110       .  S
C681        H688   1.083   1_556  S
C681        C682   1.412       .  A
C681        C686   1.396       .  A
C682        C683   1.422       .  A
C683        C684   1.408       .  A
C683        C690   1.504       .  S
C684        H689   1.084       .  S
C684        C685   1.398       .  A
C685        C686   1.404       .  A
C686        C687   1.509   1_556  S
C687        H691   1.111       .  S
C687        H692   1.111       .  S
C687        H693   1.110       .  S
C690        H694   1.108       .  S
C690        H695   1.110       .  S
C690        H696   1.111       .  S
C697        H704   1.085       .  S
C697        C698   1.398       .  A
C697        C702   1.406       .  A
C698        C699   1.410       .  A
C699        C700   1.399       .  A
C699        C706   1.500       .  S
C700        H705   1.083       .  S
C700        C701   1.401       .  A
C701        C702   1.423       .  A
C702        C703   1.508       .  S
C703        H707   1.110       .  S
C703        H708   1.111       .  S
C703        H709   1.106       .  S
C706        H710   1.110       .  S
C706        H711   1.109   1_554  S
C706        H712   1.111       .  S
C713        H720   1.084       .  S
C713        C714   1.408       .  A
C713        C718   1.416       .  A
C714        C715   1.418       .  A
C715        C716   1.421       .  A
C715        C722   1.505       .  S
C716        H721   1.082       .  S
C716        C717   1.413       .  A
C717        C718   1.422       .  A
C718        C719   1.505       .  S
C719        H723   1.108       .  S
C719        H724   1.110       .  S
C719        H725   1.110       .  S
C722        H726   1.110       .  S
C722        H727   1.110       .  S
C722        H728   1.111       .  S
C729        H736   1.083       .  S
C729        C730   1.407       .  A
C729        C734   1.420       .  A
C730        C731   1.411       .  A
C731        C732   1.411       .  A
C731        C738   1.508       .  S
C732        H737   1.080       .  S
C732        C733   1.414       .  A
C733        C734   1.422       .  A
C734        C735   1.506       .  S
C735        H739   1.110       .  S
C735        H740   1.109       .  S
C735        H741   1.111       .  S
C738        H742   1.110       .  S
C738        H743   1.108       .  S
C738        H744   1.110       .  S
C745        H752   1.086       .  S
C745        C746   1.397       .  A
C745        C750   1.394       .  A
C746        C747   1.419   1_565  A
C747        C748   1.401       .  A
C747        C754   1.509       .  S
C748        H753   1.086       .  S
C748        C749   1.400   1_545  A
C749        C750   1.415       .  A
C750        C751   1.509       .  S
C751        H755   1.111       .  S
C751        H756   1.111       .  S
C751        H757   1.109       .  S
C754        H758   1.106       .  S
C754        H759   1.111       .  S
C754        H760   1.111       .  S
C761        H768   1.085       .  S
C761        C762   1.401   1_565  A
C761        C766   1.400       .  A
C762        C763   1.416       .  A
C763        C764   1.394       .  A
C763        C770   1.510       .  S
C764        H769   1.086       .  S
C764        C765   1.396       .  A
C765        C766   1.415   1_545  A
C766        C767   1.509       .  S
C767        H771   1.111       .  S
C767        H772   1.110       .  S
C767        H773   1.110       .  S
C770        H774   1.109       .  S
C770        H775   1.111       .  S
C770        H776   1.110       .  S
C777        H784   1.085       .  S
C777        C778   1.396   1_655  A
C777        C782   1.391       .  A
C778        C779   1.415       .  A
C779        C780   1.406       .  A
C779        C786   1.507       .  S
C780        H785   1.084       .  S
C780        C781   1.402       .  A
C781        C782   1.410   1_455  A
C782        C783   1.506       .  S
C783        H787   1.109       .  S
C783        H788   1.110       .  S
C783        H789   1.106       .  S
C786        H790   1.110       .  S
C786        H791   1.110       .  S
C786        H792   1.110       .  S
C793        H800   1.085       .  S
C793        C794   1.407   1_655  A
C793        C798   1.402       .  A
C794        C795   1.406       .  A
C795        C796   1.393       .  A
C795        C802   1.507       .  S
C796        H801   1.086       .  S
C796        C797   1.403       .  A
C797        C798   1.409   1_455  A
C798        C799   1.506       .  S
C799        H803   1.111       .  S
C799        H804   1.110       .  S
C799        H805   1.106       .  S
C802        H806   1.107       .  S
C802        H807   1.110       .  S
C802        H808   1.111       .  S
C809        H816   1.084       .  S
C809        C810   1.405   1_665  A
C809        C814   1.411       .  A
C810        C811   1.400       .  A
C811        C812   1.400       .  A
C811        C818   1.507       .  S
C812        H817   1.082       .  S
C812        C813   1.416   1_455  A
C813        C814   1.417   1_545  A
C814        C815   1.504       .  S
C815        H819   1.111       .  S
C815        H820   1.110       .  S
C815        H821   1.108       .  S
C818        H822   1.111       .  S
C818        H823   1.110       .  S
C818        H824   1.110       .  S
C825        H832   1.083       .  S
C825        C826   1.404   1_445  A
C825        C830   1.405       .  A
C826        C827   1.408       .  A
C827        C828   1.403   1_655  A
C827        C834   1.507       .  S
C828        H833   1.083   1_455  S
C828        C829   1.411   1_565  A
C829        C830   1.419       .  A
C830        C831   1.505       .  S
C831        H835   1.111       .  S
C831        H836   1.110       .  S
C831        H837   1.109       .  S
C834        H838   1.110       .  S
C834        H839   1.108       .  S
C834        H840   1.110       .  S
C841        H848   1.085       .  S
C841        C842   1.407       .  A
C841        C846   1.402   1_554  A
C842        C843   1.411       .  A
C843        C844   1.398       .  A
C843        C850   1.509       .  S
C844        H849   1.084       .  S
C844        C845   1.407   1_554  A
C845        C846   1.414       .  A
C846        C847   1.507       .  S
C847        H851   1.111       .  S
C847        H852   1.110       .  S
C847        H853   1.110       .  S
C850        H854   1.110       .  S
C850        H855   1.106       .  S
C850        H856   1.111       .  S
C857        H864   1.084       .  S
C857        C858   1.403       .  A
C857        C862   1.400       .  A
C858        C859   1.414       .  A
C859        C860   1.396   1_554  A
C859        C866   1.507       .  S
C860        H865   1.085       .  S
C860        C861   1.400       .  A
C861        C862   1.414   1_556  A
C862        C863   1.509       .  S
C863        H867   1.109   1_554  S
C863        H868   1.109   1_554  S
C863        H869   1.110       .  S
C866        H870   1.110   1_554  S
C866        H871   1.109       .  S
C866        H872   1.111       .  S
C873        H880   1.084       .  S
C873        C874   1.400       .  A
C873        C878   1.408       .  A
C874        C875   1.419   1_545  A
C875        C876   1.407       .  A
C875        C882   1.507       .  S
C876        H881   1.084       .  S
C876        C877   1.404   1_565  A
C877        C878   1.423       .  A
C878        C879   1.507       .  S
C879        H883   1.111       .  S
C879        H884   1.110       .  S
C879        H885   1.107       .  S
C882        H886   1.108       .  S
C882        H887   1.110   1_554  S
C882        H888   1.111   1_554  S
C889        H896   1.084       .  S
C889        C890   1.409   1_545  A
C889        C894   1.409       .  A
C890        C891   1.418       .  A
C891        C892   1.408       .  A
C891        C898   1.506       .  S
C892        H897   1.082       .  S
C892        C893   1.406       .  A
C893        C894   1.416   1_565  A
C894        C895   1.506       .  S
C895        H899   1.108       .  S
C895        H900   1.110       .  S
C895        H901   1.110   1_556  S
C898        H902   1.110       .  S
C898        H903   1.108       .  S
C898        H904   1.111       .  S
C905        H912   1.083       .  S
C905        C906   1.408       .  A
C905        C910   1.412       .  A
C906        C907   1.422   1_655  A
C907        C908   1.406       .  A
C907        C914   1.502       .  S
C908        H913   1.085       .  S
C908        C909   1.397   1_455  A
C909        C910   1.415       .  A
C910        C911   1.506       .  S
C911        H915   1.111       .  S
C911        H916   1.108       .  S
C911        H917   1.109       .  S
C914        H918   1.109       .  S
C914        H919   1.110       .  S
C914        H920   1.109       .  S
C921        H928   1.083       .  S
C921        C922   1.408       .  A
C921        C926   1.411       .  A
C922        C923   1.425   1_455  A
C923        C924   1.405       .  A
C923        C930   1.505       .  S
C924        H929   1.085       .  S
C924        C925   1.397   1_655  A
C925        C926   1.414       .  A
C926        C927   1.506       .  S
C927        H931   1.111       .  S
C927        H932   1.109       .  S
C927        H933   1.111       .  S
C930        H934   1.110       .  S
C930        H935   1.106       .  S
C930        H936   1.111       .  S
