geometry optimzed in LAMMPS
_audit_creation_date              2020-11-30 
_audit_creation_method            'lammps2cif' 
_symmetry_space_group_name_H-M    'P1' 
_symmetry_Int_Tables_number       1 
_symmetry_cell_setting            triclinic 
loop_ 
_symmetry_equiv_pos_as_xyz 
  x,y,z 
_cell_length_a                    29.67126364 
_cell_length_b                    29.5669589323237 
_cell_length_c                    29.664769697592728 
_cell_angle_alpha                 90.06006711997402 
_cell_angle_beta                  89.86262312656817 
_cell_angle_gamma                 90.18034838857213 
loop_ 
_atom_site_label 
_atom_site_type_symbol 
_atom_site_fract_x 
_atom_site_fract_y 
_atom_site_fract_z 
_atom_site_charge 
O1          O  0.94156869  0.03334740  0.44767919    -0.87800
C2          C  0.93023739  0.01571328  0.58370164     0.88200
Mg3        Mg  0.94978360  0.97869555  0.40142090     1.58100
O4          O  0.03438942  0.06229544  0.55041358    -0.87500
O5          O  0.97560000  0.09613488  0.46787799    -0.74900
C6          C  0.11764277  0.86049756  0.49284491     0.93300
O7          O  0.89710412  0.94939347  0.50099434    -0.74700
O8          O  0.08305278  0.85505921  0.46778396    -0.82200
Mg9        Mg  0.88720688  0.02635127  0.49534519     1.58000
C10         C  0.15336814  0.00887532  0.60362886     0.93200
O11         O  0.86968459  0.10089616  0.48927616    -0.80500
H12         H  0.06932153  0.11075098  0.51896916    -0.05800
C13         C  0.03172835  0.92583790  0.56986004     0.88100
O14         O  0.02656483  0.99057906  0.39885752    -0.75000
O15         O  0.93512304  0.03835808  0.54903102    -0.87700
O16         O  0.11750486  0.02848036  0.61711222    -0.80500
C17         C  0.99959426  0.10515813  0.65746637     0.93300
C18         C  0.87698178  0.13792101  0.50974774     0.93200
Mg19       Mg  0.10303976  0.97091722  0.51191031     1.58000
O20         O  0.12394411  0.89686184  0.51487745    -0.80500
O21         O  0.09211725  0.04734466  0.50696582    -0.74700
O22         O  0.97435744  0.11400975  0.62353055    -0.80500
O23         O  0.83475322  0.01417486  0.44021916    -0.82300
O24         O  0.01466290  0.88186186  0.38415207    -0.80600
C25         C  0.06559609  0.07514512  0.52586490     0.87600
O26         O  0.05502507  0.95794731  0.45830870    -0.87700
O27         O  0.04977058  0.96233667  0.56018748    -0.87800
O28         O  0.01677344  0.89906627  0.53980760    -0.74900
Mg29       Mg  0.97347099  0.10046140  0.54545539     1.58000
O30         O  0.02834431  0.07342673  0.65618350    -0.82300
H31         H  0.96575613  0.07758264  0.40271782    -0.06000
O32         O  0.95540866  0.93346259  0.45841585    -0.87500
H33         H  0.91990181  0.88562429  0.49033280    -0.05800
H34         H  0.09356164  0.98891317  0.41236949    -0.06000
C35         C  0.92390967  0.92116320  0.48295762     0.87600
C36         C  0.96060869  0.06930709  0.43787947     0.88200
C37         C  0.06005638  0.97914665  0.42281366     0.88200
H38         H  0.02741704  0.91699049  0.60503207    -0.06000
O39         O  0.96362750  0.00355780  0.60748077    -0.75000
Mg40       Mg  0.01730109  0.89551402  0.46222072     1.58000
H41         H  0.89666860  0.00495747  0.59345061    -0.06000
C42         C  0.83608157  0.99001724  0.40478117     0.93200
O43         O  0.95912038  0.92099443  0.35241475    -0.82200
C44         C  0.98814599  0.88949449  0.35089100     0.93200
O45         O  0.90949913  0.14259090  0.53748456    -0.82200
Mg46       Mg  0.04016173  0.01690568  0.60687765     1.58200
O47         O  0.87253734  0.97072049  0.39236189    -0.80500
O48         O  0.15365448  0.98436374  0.56826045    -0.82200
O49         O  0.01065007  0.52958144  0.08413605    -0.87800
C50         C  0.90421602  0.49662134  0.00579889     0.88200
Mg51       Mg  0.06241154  0.57420401  0.06084355     1.58100
O52         O  0.98749311  0.41253183  0.01605642    -0.87500
O53         O  0.00372755  0.46109111  0.11081504    -0.74900
C54         C  0.11952230  0.50575311  0.85448791     0.93300
O55         O  0.96073710  0.59012880  0.01022794    -0.74700
O56         O  0.11781571  0.54253611  0.87679415    -0.82200
Mg57       Mg  0.94282657  0.55312789  0.07611097     1.58000
C58         C  0.02904976  0.34437856  0.89738457     0.93200
O59         O  0.91757542  0.52226419  0.14331343    -0.80500
H60         H  0.02449465  0.37026871  0.05336581    -0.05800
C61         C  0.99673356  0.48946890  0.90068897     0.88100
O62         O  0.10759998  0.51455263  0.04133587    -0.75000
O63         O  0.92808818  0.49236751  0.03960620    -0.87700
O64         O  0.99526179  0.35308611  0.92253684    -0.80500
C65         C  0.87730227  0.36562906  0.00562894     0.93300
C66         C  0.89869324  0.48608242  0.15736355     0.93200
Mg67       Mg  0.07651768  0.43613404  0.93471565     1.58000
O68         O  0.10183949  0.46938183  0.86958018    -0.80500
O69         O  0.05803672  0.39746143  0.99995737    -0.74700
O70         O  0.88401141  0.38989657  0.04077365    -0.80500
O71         O  0.95841008  0.61791601  0.11397530    -0.82300
O72         O  0.13535445  0.59781668  0.96793631    -0.80600
C73         C  0.02297599  0.39233889  0.02421056     0.87600
O74         O  0.09083956  0.49636137  0.97177176    -0.87700
O75         O  0.00870812  0.46013043  0.92764707    -0.87800
O76         O  0.01470962  0.52841915  0.90049404    -0.74900
Mg77       Mg  0.94410119  0.42959743  0.07269985     1.58000
O78         O  0.90303143  0.36767348  0.97152585    -0.82300
H79         H  0.04948092  0.50660321  0.13406004    -0.06000
O80         O  0.03163341  0.57583200  0.99511290    -0.87500
H81         H  0.99437938  0.61675040  0.95687383    -0.05800
H82         H  0.14041200  0.46620290  0.00571508    -0.06000
C83         C  0.99596306  0.59544937  0.98631507     0.87600
C84         C  0.02218332  0.49985880  0.11089861     0.88200
C85         C  0.11441226  0.49167572  0.00574028     0.88200
H86         H  0.96939812  0.48225785  0.87773757    -0.06000
O87         O  0.91118929  0.47379817  0.97018353    -0.75000
Mg88       Mg  0.07452331  0.55951889  0.93833716     1.58000
H89         H  0.87772590  0.52160674  0.00599518    -0.06000
C90         C  0.99076559  0.64616701  0.11111384     0.93200
O91         O  0.11653863  0.62040495  0.03703433    -0.82200
C92         C  0.14158502  0.62275701  0.00238376     0.93200
O93         O  0.90010129  0.44955119  0.13414064    -0.82200
Mg94       Mg  0.95738122  0.41497506  0.94996367     1.58200
O95         O  0.02574174  0.63755869  0.08769477    -0.80500
O96         O  0.06177653  0.37207009  0.89392843    -0.82200
O97         O  0.43294413  0.53460555  0.44984893    -0.87800
C98         C  0.56350114  0.57479776  0.46841635     0.88200
Mg99       Mg  0.38846839  0.52067586  0.50583854     1.58100
O100        O  0.54880787  0.46080499  0.43575287    -0.87500
O101        O  0.46026163  0.50049124  0.39048256    -0.74900
C102        C  0.50163035  0.39286937  0.64936396     0.93300
O103        O  0.47309747  0.59658344  0.52885744    -0.74700
O104        O  0.47351170  0.42521787  0.65003168    -0.82200
Mg105      Mg  0.46867989  0.59841069  0.45156108     1.58000
C106        C  0.62046028  0.35956086  0.50296270     0.93200
O107        O  0.46627396  0.61212083  0.37385723    -0.80500
H108        H  0.52545527  0.41410309  0.39288395    -0.05800
C109        C  0.56613681  0.48191601  0.57131392     0.88100
O110        O  0.40212442  0.44471344  0.50170304    -0.75000
O111        O  0.53139503  0.56155171  0.44536324    -0.87700
O112        O  0.62560497  0.39602107  0.48048128    -0.80500
C113        C  0.65019023  0.50723260  0.38728045     0.93300
C114        C  0.49263538  0.60471527  0.34047498     0.93200
Mg115      Mg  0.52286697  0.39507998  0.53667239     1.58000
O116        O  0.52429089  0.38302977  0.61397402    -0.80500
O117        O  0.51875698  0.39706998  0.45889014    -0.74700
O118        O  0.61352185  0.52608334  0.37489938    -0.80500
O119        O  0.40239099  0.63693873  0.45982407    -0.82300
O120        O  0.38271199  0.46734497  0.61284980    -0.80600
C121        C  0.53125732  0.42371465  0.42759340     0.87600
O122        O  0.46187467  0.43253192  0.54299554    -0.87700
O123        O  0.55970048  0.45825959  0.53761938    -0.87800
O124        O  0.53379665  0.49495302  0.59609344    -0.74900
Mg125      Mg  0.53636887  0.51535652  0.38904587     1.58000
O126        O  0.65192952  0.48372459  0.42319078    -0.82300
H127        H  0.39377295  0.50064517  0.40670354    -0.06000
O128        O  0.44414380  0.53215853  0.55108941    -0.87500
H129        H  0.46586311  0.57902631  0.59461676    -0.05800
H130        H  0.42735290  0.38240376  0.51393414    -0.06000
C131        C  0.46063870  0.56957606  0.55973832     0.87600
C132        C  0.42733822  0.51194311  0.41533647     0.88200
C133        C  0.43016111  0.41819925  0.52004962     0.88200
H134        H  0.60003945  0.49307924  0.57901285    -0.06000
O135        O  0.59154481  0.54735962  0.48553207    -0.75000
Mg136      Mg  0.45803880  0.47972927  0.59888479     1.58000
H137        H  0.56708182  0.61048659  0.47522579    -0.06000
C138        C  0.36867927  0.63023488  0.48582852     0.93200
O139        O  0.34119764  0.50644446  0.56453111    -0.82200
C140        C  0.34502298  0.48384012  0.60082399     0.93200
O141        O  0.52186429  0.57321266  0.34150403    -0.82200
Mg142      Mg  0.60404546  0.47065619  0.48164883     1.58200
O143        O  0.36432956  0.59374330  0.50806878    -0.80500
O144        O  0.58723015  0.35407102  0.52961431    -0.82200
O145        O  0.56107169  0.97053035  0.05263784    -0.87800
C146        C  0.42428133  0.96989062  0.06632122     0.88200
Mg147      Mg  0.59811308  0.03193534  0.04659454     1.58100
O148        O  0.46100419  0.94292679  0.95632567    -0.87500
O149        O  0.54951062  0.91097364  0.01045924    -0.74900
C150        C  0.48676087  0.15878199  0.89622211     0.93300
O151        O  0.49869152  0.04222163  0.10524980    -0.74700
O152        O  0.51114265  0.16115004  0.93148221    -0.84600
Mg153      Mg  0.51387055  0.96615463  0.10760797     1.58000
C154        C  0.39244817  0.00173153  0.84517888     0.93200
O155        O  0.52592210  0.88974734  0.12095423    -0.80500
H156        H  0.49483535  0.90304480  0.91380645    -0.05800
C157        C  0.42007707  0.07263860  0.97493029     0.88100
O158        O  0.59609565  0.02688119  0.96890025    -0.75000
O159        O  0.46158617  0.95290032  0.05880106    -0.87700
O160        O  0.38466371  0.97637330  0.87922393    -0.80500
C161        C  0.36352493  0.87991032  0.98901617     0.93300
C162        C  0.50875344  0.85247292  0.10761982     0.93200
Mg163      Mg  0.48014230  0.04555275  0.89624091     1.58000
O164        O  0.46771448  0.12188809  0.88458859    -0.80500
O165        O  0.49540913  0.96943009  0.89680083    -0.74700
O166        O  0.39993149  0.87532802  0.01129282    -0.80500
O167        O  0.56921616  0.98174202  0.15815911    -0.82300
O168        O  0.59771683  0.13407891  0.98949767    -0.80600
C169        C  0.48376531  0.93672489  0.92197800     0.87600
O170        O  0.53351416  0.05763159  0.94434024    -0.87700
O171        O  0.43392059  0.04060335  0.95203435    -0.87800
O172        O  0.44687823  0.10073364  0.99319111    -0.74900
Mg173      Mg  0.47341282  0.89810105  0.01233051     1.58000
O174        O  0.35716744  0.91341343  0.96301502    -0.82300
H175        H  0.61159605  0.93555919  0.02512345    -0.06000
O176        O  0.53499312  0.06857808  0.04668032    -0.87500
H177        H  0.49979862  0.10867374  0.08806204    -0.05800
H178        H  0.58022534  0.03261116  0.90262752    -0.06000
C179        C  0.51124343  0.07478299  0.08034091     0.87600
C180        C  0.57570561  0.93869786  0.02999125     0.88200
C181        C  0.57025173  0.03927789  0.93706348     0.88200
H182        H  0.38417127  0.07598849  0.98078804    -0.06000
O183        O  0.39829766  0.98225199  0.03463415    -0.75000
Mg184      Mg  0.52336021  0.11306760  0.99029650     1.58000
H185        H  0.41394603  0.97544838  0.10083805    -0.06000
C186        C  0.60114771  0.01067607  0.15897664     0.93200
O187        O  0.63910106  0.09593870  0.03892153    -0.82200
C188        C  0.63402323  0.12875932  0.01179491     0.93200
O189        O  0.48621581  0.85013820  0.07110479    -0.82200
Mg190      Mg  0.39710686  0.97852687  0.95697446     1.58200
O191        O  0.61030399  0.03502012  0.12448737    -0.80500
O192        O  0.42368104  0.03141475  0.84617455    -0.82200
C193        C  0.53763658  0.76989987  0.20322013    -0.13800
C194        C  0.50698784  0.73476407  0.19454084     0.16600
C195        C  0.47993821  0.73709044  0.15574997     0.02800
C196        C  0.48293134  0.77459896  0.12712164    -0.12300
C197        C  0.51206413  0.81110034  0.13650022    -0.03400
C198        C  0.54031781  0.80798349  0.17496405     0.02100
C199        C  0.50108880  0.69820711  0.22843322     0.08900
N200        N  0.44861026  0.70192261  0.14518077     0.65300
H201        H  0.46086160  0.77565715  0.09814399     0.18200
N202        N  0.57148025  0.84307907  0.18650536     0.75800
H203        H  0.55853472  0.76851164  0.23306797     0.09700
C204        C  0.53489332  0.66594627  0.23629961     0.03400
C205        C  0.53012326  0.63486267  0.27153948    -0.05300
C206        C  0.49224997  0.63524299  0.30028521    -0.23700
C207        C  0.45768269  0.66701172  0.29150132     0.12700
C208        C  0.46238343  0.69787378  0.25573037    -0.12800
N209        N  0.57455901  0.66434430  0.20898850     0.64300
H210        H  0.55723236  0.61115469  0.27713388     0.12200
N211        N  0.41760707  0.66865203  0.31824179     0.61000
H212        H  0.43617607  0.72260514  0.25002213     0.08300
O213        O  0.61279593  0.83748185  0.17807686    -0.40500
O214        O  0.56007682  0.87234231  0.21532425    -0.39700
O215        O  0.40730122  0.70788434  0.15334834    -0.39700
O216        O  0.46017352  0.67130918  0.11788501    -0.37400
O217        O  0.41421951  0.69818246  0.34880080    -0.38300
O218        O  0.38241879  0.64941616  0.30391430    -0.34400
O219        O  0.61096749  0.68014935  0.22436492    -0.35800
O220        O  0.57587624  0.63725406  0.17612523    -0.40100
C221        C  0.49741827  0.34625275  0.76942827    -0.13800
C222        C  0.49983659  0.29957011  0.76101689     0.16600
C223        C  0.50544565  0.28458010  0.71610428     0.02800
C224        C  0.50850226  0.31594062  0.68097431    -0.12300
C225        C  0.50475432  0.36252114  0.68905049    -0.03400
C226        C  0.49939002  0.37769949  0.73396547     0.02100
C227        C  0.49373923  0.26686313  0.79875498     0.08900
N228        N  0.50719955  0.23751810  0.70522639     0.65300
H229        H  0.51182015  0.30347303  0.64678714     0.18200
N230        N  0.49644662  0.42478274  0.74436964     0.75800
H231        H  0.49255443  0.35833958  0.80352830     0.09700
C232        C  0.52224497  0.26652488  0.83676419     0.03400
C233        C  0.51723020  0.23282482  0.86963011    -0.05300
C234        C  0.48410837  0.19886666  0.86572019    -0.23700
C235        C  0.45324239  0.20162096  0.82944007     0.12700
C236        C  0.45837130  0.23536384  0.79662883    -0.12800
N237        N  0.55803436  0.29859316  0.84152734     0.64300
H238        H  0.54110176  0.23205231  0.89715550     0.12200
N239        N  0.41628727  0.17082432  0.82521124     0.61000
H240        H  0.43464917  0.23671958  0.76901157     0.08300
O241        O  0.53135421  0.44543897  0.75736349    -0.40500
O242        O  0.45832121  0.44195592  0.75204720    -0.39700
O243        O  0.47258320  0.21859364  0.68916530    -0.39700
O244        O  0.54509147  0.21906457  0.69971579    -0.37400
O245        O  0.37836489  0.18208078  0.84088220    -0.38300
O246        O  0.41820109  0.13998679  0.79584210    -0.34400
O247        O  0.55357519  0.33072975  0.86919301    -0.35800
O248        O  0.59701333  0.28812545  0.82810362    -0.40100
C249        C  0.80199309  0.26569155  0.97575717    -0.13800
C250        C  0.76528629  0.27292339  0.00433657     0.16600
C251        C  0.76477227  0.31116708  0.03266396     0.02800
C252        C  0.80149264  0.34104570  0.03257863    -0.12300
C253        C  0.83872204  0.33370717  0.00421173    -0.03400
C254        C  0.83842279  0.29554450  0.97517513     0.02100
C255        C  0.73080000  0.23715537  0.00695690     0.08900
N256        N  0.72791457  0.31963665  0.06249460     0.65300
H257        H  0.80080200  0.37007785  0.05483530     0.18200
N258        N  0.87532146  0.28535588  0.94591039     0.75800
H259        H  0.80276704  0.23600063  0.95430572     0.09700
C260        C  0.68825373  0.24172102  0.98687597     0.03400
C261        C  0.65791761  0.20555465  0.98791505    -0.05300
C262        C  0.66947413  0.16402270  0.00787654    -0.23700
C263        C  0.71325754  0.15901441  0.02600396     0.12700
C264        C  0.74304363  0.19570182  0.02591832    -0.12800
N265        N  0.67598411  0.28193819  0.96339784     0.64300
H266        H  0.62499904  0.21035523  0.97304374     0.12200
N267        N  0.72876796  0.11710120  0.04392217     0.61000
H268        H  0.77647693  0.19151821  0.03990500     0.08300
O269        O  0.87213531  0.29502715  0.90462133    -0.40500
O270        O  0.90395041  0.25642357  0.95818621    -0.39700
O271        O  0.73163047  0.30910527  0.10351562    -0.39700
O272        O  0.69856924  0.34822181  0.05120893    -0.37400
O273        O  0.73838187  0.11531479  0.08523091    -0.38300
O274        O  0.74626821  0.08863666  0.01747613    -0.34400
O275        O  0.68246351  0.28381065  0.92138943    -0.35800
O276        O  0.64777890  0.30839127  0.98116094    -0.40100
C277        C  0.24662848  0.69189290  0.97576370    -0.13800
C278        C  0.23747339  0.73129726  0.00045299     0.16600
C279        C  0.19716276  0.73452815  0.02524333     0.02800
C280        C  0.16732693  0.69817736  0.02577743    -0.12300
C281        C  0.17633342  0.65844234  0.00151551    -0.03400
C282        C  0.21640157  0.65547739  0.97604303     0.02100
C283        C  0.26943985  0.76935577  0.99846435     0.08900
N284        N  0.18601002  0.77427831  0.05035166     0.65300
H285        H  0.13655888  0.70141442  0.04469541     0.18200
N286        N  0.22777212  0.61550014  0.95157056     0.75800
H287        H  0.27712460  0.68956779  0.95587661     0.09700
C288        C  0.31417847  0.76480221  0.01310390     0.03400
C289        C  0.34345970  0.80161278  0.01051360    -0.05300
C290        C  0.32950728  0.84322048  0.99234937    -0.23700
C291        C  0.28480884  0.84701267  0.97617109     0.12700
C292        C  0.25526691  0.81029976  0.97986833    -0.12800
N293        N  0.33055858  0.72301763  0.03066023     0.64300
H294        H  0.37771512  0.79699376  0.02206652     0.12200
N295        N  0.26893649  0.88663266  0.95401839     0.61000
H296        H  0.22126548  0.81345922  0.96709694     0.08300
O297        O  0.25469859  0.58760995  0.96896778    -0.40500
O298        O  0.22104888  0.61424675  0.90961845    -0.39700
O299        O  0.15707752  0.80123122  0.03475614    -0.39700
O300        O  0.19539434  0.77588804  0.09177985    -0.37400
O301        O  0.25967479  0.88378751  0.91265245    -0.38300
O302        O  0.25032447  0.91712734  0.97721965    -0.34400
O303        O  0.35424762  0.69790176  0.00571448    -0.35800
O304        O  0.33143565  0.71726446  0.07277308    -0.40100
C305        C  0.19039151  0.53553592  0.75043620    -0.13800
C306        C  0.20151573  0.49223292  0.73422897     0.16600
C307        C  0.18300536  0.45415352  0.75644765     0.02800
C308        C  0.15589823  0.45989975  0.79454466    -0.12300
C309        C  0.14526056  0.50304673  0.81131076    -0.03400
C310        C  0.16175967  0.54128085  0.78779502     0.02100
C311        C  0.23550519  0.48730335  0.69723407     0.08900
N312        N  0.19093672  0.40909531  0.74084207     0.65300
H313        H  0.14363156  0.42988656  0.81140919     0.18200
N314        N  0.14895373  0.58612758  0.80024835     0.75800
H315        H  0.20477261  0.56523638  0.73485429     0.09700
C316        C  0.23387019  0.51285733  0.65697667     0.03400
C317        C  0.26856387  0.50909860  0.62504118    -0.05300
C318        C  0.30555492  0.48032053  0.63189780    -0.23700
C319        C  0.30599219  0.45319467  0.67113871     0.12700
C320        C  0.27197755  0.45782647  0.70357462    -0.12800
N321        N  0.19747808  0.54297305  0.64765752     0.64300
H322        H  0.26688527  0.52983172  0.59517931     0.12200
N323        N  0.34013744  0.42009495  0.67859604     0.61000
H324        H  0.27491676  0.43885023  0.73447818     0.08300
O325        O  0.11604571  0.60424893  0.78043918    -0.40500
O326        O  0.17676187  0.61094098  0.82087036    -0.39700
O327        O  0.21571807  0.38332959  0.76384690    -0.39700
O328        O  0.16360596  0.39177151  0.71321608    -0.37400
O329        O  0.37168895  0.42878640  0.70570494    -0.38300
O330        O  0.33213402  0.37944890  0.66826043    -0.34400
O331        O  0.20408657  0.58505309  0.65082477    -0.35800
O332        O  0.16492005  0.52886906  0.62420353    -0.40100
C333        C  0.83747773  0.52865707  0.26351066    -0.13800
C334        C  0.80906519  0.49201030  0.27300891     0.16600
C335        C  0.81442899  0.45168950  0.24820390     0.02800
C336        C  0.84544366  0.44973723  0.21240646    -0.12300
C337        C  0.87194434  0.48746070  0.20045355    -0.03400
C338        C  0.86898920  0.52674168  0.22808839     0.02100
C339        C  0.76983220  0.49883862  0.30363753     0.08900
N340        N  0.78743308  0.41280314  0.25781517     0.65300
H341        H  0.84735159  0.41890313  0.19280787     0.18200
N342        N  0.89674377  0.56557202  0.22037307     0.75800
H343        H  0.83394864  0.55969806  0.28259922     0.09700
C344        C  0.77209302  0.49143557  0.35044033     0.03400
C345        C  0.73330704  0.49650729  0.37719800    -0.05300
C346        C  0.69178870  0.50998174  0.35852889    -0.23700
C347        C  0.69076748  0.52083659  0.31197373     0.12700
C348        C  0.72936651  0.51456130  0.28515534    -0.12800
N349        N  0.81337261  0.47867671  0.37145737     0.64300
H350        H  0.73567993  0.48905484  0.41283107     0.12200
N351        N  0.65087198  0.53731864  0.29082229     0.61000
H352        H  0.72765077  0.52179606  0.24941631     0.08300
O353        O  0.93101215  0.57164589  0.24478325    -0.40500
O354        O  0.88083503  0.59860397  0.19879239    -0.39700
O355        O  0.75448153  0.40356039  0.23259585    -0.39700
O356        O  0.80302751  0.38248499  0.28324083    -0.37400
O357        O  0.64671276  0.57934296  0.28478540    -0.38300
O358        O  0.62713281  0.51046019  0.26777429    -0.34400
O359        O  0.83670248  0.50862835  0.39088496    -0.35800
O360        O  0.81995528  0.43762436  0.38084959    -0.40100
C361        C  0.69851437  0.26050067  0.52895555    -0.13800
C362        C  0.73338308  0.26829067  0.49793393     0.16600
C363        C  0.72825050  0.30263903  0.46548757     0.02800
C364        C  0.69002303  0.33014407  0.46641231    -0.12300
C365        C  0.65619289  0.32443571  0.49930335    -0.03400
C366        C  0.66018613  0.28801103  0.53004230     0.02100
C367        C  0.77378653  0.23892963  0.49920754     0.08900
N368        N  0.76239183  0.31156090  0.43259670     0.65300
H369        H  0.68773514  0.35716412  0.44193316     0.18200
N370        N  0.62661724  0.27893750  0.56346809     0.75800
H371        H  0.70116785  0.23294532  0.55278899     0.09700
C372        C  0.79998839  0.23467800  0.53863453     0.03400
C373        C  0.83504357  0.20329417  0.54025837    -0.05300
C374        C  0.84438655  0.17514071  0.50343240    -0.23700
C375        C  0.81915969  0.18046467  0.46328138     0.12700
C376        C  0.78424865  0.21219068  0.46161020    -0.12800
N377        N  0.79111459  0.26146933  0.57772763     0.64300
H378        H  0.85377429  0.19967286  0.57131656     0.12200
N379        N  0.82866672  0.15447993  0.42372008     0.61000
H380        H  0.76429773  0.21488223  0.43123963     0.08300
O381        O  0.63325693  0.29188047  0.60345938    -0.40500
O382        O  0.59770939  0.24844338  0.55606516    -0.39700
O383        O  0.75581879  0.29975842  0.39224329    -0.39700
O384        O  0.79214116  0.34093560  0.44102657    -0.37400
O385        O  0.80386228  0.12107225  0.41426446    -0.38300
O386        O  0.85260717  0.17185442  0.39304364    -0.34400
O387        O  0.77120526  0.24354799  0.61086983    -0.35800
O388        O  0.81360784  0.29722354  0.58381646    -0.40100
C389        C  0.22838090  0.79869975  0.51515013    -0.13800
C390        C  0.22436650  0.76180725  0.48603385     0.16600
C391        C  0.18392120  0.75538278  0.46208157     0.02800
C392        C  0.14899156  0.78688856  0.46612990    -0.12300
C393        C  0.15323399  0.82497581  0.49422984    -0.03400
C394        C  0.19339134  0.82993834  0.51986444     0.02100
C395        C  0.26127522  0.72839413  0.48465684     0.08900
N396        N  0.17818076  0.71772305  0.43247738     0.65300
H397        H  0.11883550  0.78187146  0.44626549     0.18200
N398        N  0.19957150  0.86610013  0.55118689     0.75800
H399        H  0.25875376  0.80294928  0.53492804     0.09700
C400        C  0.30358757  0.73851864  0.46545764     0.03400
C401        C  0.33828244  0.70655041  0.46693032    -0.05300
C402        C  0.33218833  0.66467718  0.48855362    -0.23700
C403        C  0.29007082  0.65574106  0.50973136     0.12700
C404        C  0.25512531  0.68723148  0.50690031    -0.12800
N405        N  0.31189929  0.78104000  0.44418092     0.64300
H406        H  0.37011078  0.71467990  0.45092788     0.12200
N407        N  0.28198549  0.61535691  0.53491292     0.61000
H408        H  0.22321570  0.67994328  0.52320295     0.08300
O409        O  0.22470641  0.89885301  0.54033666    -0.40500
O410        O  0.19118803  0.85910896  0.59232706    -0.39700
O411        O  0.15391962  0.68489241  0.44493053    -0.39700
O412        O  0.18695644  0.72254446  0.39112223    -0.37400
O413        O  0.28813241  0.61590054  0.57699077    -0.38300
O414        O  0.25816940  0.58437714  0.51781690    -0.34400
O415        O  0.33372533  0.81103167  0.46521815    -0.35800
O416        O  0.30797471  0.78411775  0.40195992    -0.40100
C417        C  0.24511513  0.04546775  0.68733774    -0.13800
C418        C  0.26952893  0.00504268  0.69191050     0.16600
C419        C  0.25666212  0.96742302  0.66553881     0.02800
C420        C  0.22011602  0.97063704  0.63590421    -0.12300
C421        C  0.19487250  0.01052714  0.63199144    -0.03400
C422        C  0.20806415  0.04849263  0.65788112     0.02100
C423        C  0.30432956  0.00127283  0.72805404     0.08900
N424        N  0.27968788  0.92517598  0.66885297     0.65300
H425        H  0.21030784  0.94112134  0.61732441     0.18200
N426        N  0.18503276  0.09065006  0.65425675     0.75800
H427        H  0.25384882  0.07440339  0.70781496     0.09700
C428        C  0.34227162  0.03010937  0.73038876     0.03400
C429        C  0.37154443  0.02791916  0.76749626    -0.05300
C430        C  0.36328433  0.99846999  0.80391870    -0.23700
C431        C  0.32519218  0.96956333  0.80117874     0.12700
C432        C  0.29680128  0.97082725  0.76344316    -0.12800
N433        N  0.35132983  0.06251830  0.69586144     0.64300
H434        H  0.40012187  0.05069431  0.76828866     0.12200
N435        N  0.31185727  0.94187736  0.83813076     0.61000
H436        H  0.26698418  0.94965343  0.76316113     0.08300
O437        O  0.20041027  0.12031948  0.62778805    -0.40500
O438        O  0.15884021  0.10263105  0.68556484    -0.39700
O439        O  0.26157575  0.89332337  0.69071567    -0.39700
O440        O  0.30996382  0.91601538  0.64037270    -0.37400
O441        O  0.28394097  0.95760638  0.86614526    -0.38300
O442        O  0.31780187  0.89969384  0.83585575    -0.34400
O443        O  0.34131562  0.10340667  0.70271353    -0.35800
O444        O  0.37977577  0.05303763  0.66565199    -0.40100
C445        C  0.71758303  0.00375218  0.35420775    -0.13800
C446        C  0.72611447  0.99394397  0.30865417     0.16600
C447        C  0.76980246  0.97940528  0.29629784     0.02800
C448        C  0.80372820  0.97604010  0.32877843    -0.12300
C449        C  0.79605665  0.98755871  0.37413049    -0.03400
C450        C  0.75188980  0.00085004  0.38684612     0.02100
C451        C  0.69078922  0.00251186  0.27379947     0.08900
N452        N  0.78088993  0.96869309  0.25058926     0.65300
H453        H  0.83701982  0.96607727  0.31766265     0.18200
N454        N  0.74093863  0.01158458  0.43252380     0.75800
H455        H  0.68453393  0.01536520  0.36434540     0.09700
C456        C  0.64767489  0.98212906  0.27493280     0.03400
C457        C  0.61789825  0.98777949  0.23859776    -0.05300
C458        C  0.62998701  0.01340803  0.20039047    -0.23700
C459        C  0.67174466  0.03669217  0.20132942     0.12700
C460        C  0.70109490  0.03148718  0.23787077    -0.12800
N461        N  0.63417067  0.95373808  0.31147613     0.64300
H462        H  0.58586874  0.97019445  0.23962137     0.12200
N463        N  0.68712676  0.06267239  0.16394125     0.61000
H464        H  0.73306010  0.04919332  0.23733257     0.08300
O465        O  0.73788720  0.05254755  0.44406183    -0.40500
O466        O  0.72234944  0.98176886  0.45669586    -0.39700
O467        O  0.80354303  0.99673490  0.22775826    -0.39700
O468        O  0.77970908  0.92791247  0.23809358    -0.37400
O469        O  0.68468989  0.10523857  0.16582719    -0.38300
O470        O  0.71401593  0.04448904  0.13641244    -0.34400
O471        O  0.60699330  0.96905345  0.34045684    -0.35800
O472        O  0.63874628  0.91149755  0.30768373    -0.40100
C473        C  0.02534909  0.75170634  0.17717358    -0.13800
C474        C  0.98722301  0.75842250  0.20424518     0.16600
C475        C  0.94824962  0.73225171  0.19574351     0.02800
C476        C  0.94943627  0.69768555  0.16343395    -0.12300
C477        C  0.98875625  0.68853411  0.13852115    -0.03400
C478        C  0.02643628  0.71753928  0.14443011     0.02100
C479        C  0.98888161  0.79306881  0.24069233     0.08900
N480        N  0.90762112  0.73890013  0.22078544     0.65300
H481        H  0.91963506  0.67699238  0.15900346     0.18200
N482        N  0.06621612  0.71321093  0.11768018     0.75800
H483        H  0.05469987  0.77305948  0.18160217     0.09700
C484        C  0.02198009  0.79185712  0.27480690     0.03400
C485        C  0.02203218  0.82446726  0.30910244    -0.05300
C486        C  0.98974363  0.85914750  0.31046562    -0.23700
C487        C  0.95788832  0.86149870  0.27478504     0.12700
C488        C  0.95779550  0.82858587  0.24068188    -0.12800
N489        N  0.05501479  0.75682720  0.27615388     0.64300
H490        H  0.04706905  0.82178602  0.33542872     0.12200
N491        N  0.92494766  0.89656797  0.27243267     0.61000
H492        H  0.93328161  0.83097467  0.21383535     0.08300
O493        O  0.10021742  0.69379850  0.13415339    -0.40500
O494        O  0.07129055  0.73908157  0.08424630    -0.39700
O495        O  0.87518314  0.75917676  0.20231507    -0.39700
O496        O  0.90004182  0.71455981  0.25489105    -0.37400
O497        O  0.93292856  0.93079379  0.24828275    -0.38300
O498        O  0.88475019  0.88776494  0.28339519    -0.34400
O499        O  0.09498364  0.76572987  0.26444364    -0.35800
O500        O  0.04732828  0.72191389  0.29938100    -0.40100
C501        C  0.05128659  0.25735607  0.80429795    -0.13800
C502        C  0.01050583  0.23328614  0.80471900     0.16600
C503        C  0.97902687  0.24189293  0.83909138     0.02800
C504        C  0.98751313  0.27606695  0.87064917    -0.12300
C505        C  0.02696244  0.30270544  0.86877220    -0.03400
C506        C  0.05989545  0.29173273  0.83586919     0.02100
C507        C  0.00245637  0.19855234  0.76959825     0.08900
N508        N  0.93806508  0.21655658  0.84233225     0.65300
H509        H  0.96205579  0.28280606  0.89573605     0.18200
N510        N  0.10181764  0.31544168  0.83311830     0.75800
H511        H  0.07629874  0.24995166  0.77871667     0.09700
C512        C  0.97702307  0.20792022  0.73069885     0.03400
C513        C  0.97464020  0.17607066  0.69575521    -0.05300
C514        C  0.99755903  0.13459270  0.69841020    -0.23700
C515        C  0.02143699  0.12459174  0.73867754     0.12700
C516        C  0.02375983  0.15663677  0.77347527    -0.12800
N517        N  0.95539191  0.25059400  0.72493891     0.64300
H518        H  0.95624783  0.18489476  0.66557127     0.12200
N519        N  0.04379247  0.08235027  0.74512989     0.61000
H520        H  0.04315815  0.14908987  0.80340924     0.08300
O521        O  0.10683336  0.34553556  0.80339592    -0.40500
O522        O  0.13626181  0.29836466  0.85116794    -0.39700
O523        O  0.93474418  0.18590647  0.87172413    -0.39700
O524        O  0.90269363  0.23219120  0.82482449    -0.37400
O525        O  0.08598995  0.08051308  0.74032786    -0.38300
O526        O  0.02414867  0.05173915  0.76740278    -0.34400
O527        O  0.97544919  0.28125593  0.70309873    -0.35800
O528        O  0.91329347  0.25314792  0.73035804    -0.40100
loop_ 
_geom_bond_atom_site_label_1 
_geom_bond_atom_site_label_2 
_geom_bond_distance 
_geom_bond_site_symmetry_2 
_ccdc_geom_bond_type 
O1           Mg3   2.133   1_545  S
O1           Mg9   2.152       .  S
O1           C36   1.237       .  S
C2           O15   1.236       .  S
C2           O39   1.271       .  A
C2           H41   1.083       .  S
Mg3          O32   2.164       .  S
Mg3          O47   2.320       .  S
Mg3          O43   2.258       .  S
Mg3          O14   2.305   1_655  S
O4          Mg46   2.155       .  S
O4          Mg29   2.139   1_455  S
O4           C25   1.236       .  S
O5           C36   1.272       .  A
O5          Mg29   2.305       .  S
C6            O8   1.278       .  A
C6           O20   1.271       .  A
C6          C393   1.492       .  S
O7           C35   1.272       .  A
O7           Mg9   2.302   1_565  S
O8          Mg40   2.298       .  S
Mg9          O15   2.166       .  S
Mg9          O23   2.288       .  S
Mg9          O11   2.274       .  S
C10          O48   1.275   1_545  A
C10          O16   1.277       .  A
C10         C421   1.494       .  S
O11          C18   1.270       .  A
H12          C25   1.078       .  S
C13          O27   1.237       .  S
C13          O28   1.271       .  A
C13          H38   1.083       .  S
O14          C37   1.270       .  A
O15         Mg29   2.160       .  S
O16         Mg46   2.340       .  S
C17          O30   1.271   1_655  A
C17          O22   1.284       .  A
C17         C514   1.495       .  S
C18          O45   1.277       .  A
C18         C374   1.480       .  S
Mg19         O26   2.171       .  S
Mg19         O27   2.145       .  S
Mg19         O20   2.279       .  S
Mg19         O21   2.289   1_565  S
Mg19         O48   2.284       .  S
O21          C25   1.269       .  A
O22         Mg29   2.350       .  S
O23          C42   1.271   1_545  A
O24          C44   1.284   1_455  A
O24         Mg40   2.352       .  S
O26         Mg40   2.159       .  S
O26          C37   1.234       .  S
O27         Mg46   2.145   1_565  S
O28         Mg40   2.304       .  S
Mg29         O45   2.286       .  S
O30         Mg46   2.247       .  S
H31          C36   1.082       .  S
O32         Mg40   2.158   1_655  S
O32          C35   1.237       .  S
H33          C35   1.080       .  S
H34          C37   1.079       .  S
O39         Mg46   2.304   1_655  S
C42          O47   1.278       .  A
C42         C449   1.499       .  S
O43          C44   1.271       .  A
C44         C486   1.498       .  S
O49         Mg51   2.136       .  S
O49         Mg57   2.145   1_455  S
O49          C84   1.235       .  S
C50          O63   1.236       .  S
C50          O87   1.270   1_554  A
C50          H89   1.080       .  S
Mg51         O80   2.156   1_554  S
Mg51         O95   2.309       .  S
Mg51         O91   2.220       .  S
Mg51         O62   2.292       .  S
O52         Mg94   2.158   1_554  S
O52         Mg77   2.174       .  S
O52          C73   1.236   1_655  S
O53          C84   1.269       .  A
O53         Mg77   2.296   1_455  S
C54          O56   1.274       .  A
C54          O68   1.276       .  A
C54         C309   1.492       .  S
O55          C83   1.271   1_554  A
O55         Mg57   2.301       .  S
O56         Mg88   2.286       .  S
Mg57         O63   2.141       .  S
Mg57         O71   2.267       .  S
Mg57         O59   2.315       .  S
C58          O96   1.272       .  A
C58          O64   1.275   1_455  A
C58         C505   1.497       .  S
O59          C66   1.276       .  A
H60          C73   1.085       .  S
C61          O75   1.234   1_655  S
C61          O76   1.268   1_655  A
C61          H86   1.081       .  S
O62          C85   1.270       .  A
O63         Mg77   2.155       .  S
O64         Mg94   2.298       .  S
C65          O78   1.267   1_554  A
C65          O70   1.281       .  A
C65         C253   1.482       .  S
C66          O93   1.281       .  A
C66         C337   1.504       .  S
Mg67         O74   2.134       .  S
Mg67         O75   2.146       .  S
Mg67         O68   2.293       .  S
Mg67         O69   2.313       .  S
Mg67         O96   2.288       .  S
O69          C73   1.272   1_556  A
O70         Mg77   2.334       .  S
O71          C90   1.273       .  A
O72          C92   1.273   1_556  A
O72         Mg88   2.303       .  S
O74         Mg88   2.172       .  S
O74          C85   1.236   1_556  S
O75         Mg94   2.127   1_455  S
O76         Mg88   2.292       .  S
Mg77         O93   2.316       .  S
O78         Mg94   2.225       .  S
H79          C84   1.081       .  S
O80         Mg88   2.163       .  S
O80          C83   1.237   1_455  S
H81          C83   1.079       .  S
H82          C85   1.080       .  S
O87         Mg94   2.296       .  S
C90          O95   1.274   1_655  A
C90         C477   1.494       .  S
O91          C92   1.269       .  A
C92         C281   1.473       .  S
O97         Mg99   2.158       .  S
O97        Mg105   2.162       .  S
O97         C132   1.234       .  S
C98         O111   1.236       .  S
C98         O135   1.271       .  A
C98         H137   1.079       .  S
Mg99        O128   2.157       .  S
Mg99        O143   2.279       .  S
Mg99        O139   2.272       .  S
Mg99        O110   2.287       .  S
O100       Mg142   2.152       .  S
O100       Mg125   2.161       .  S
O100        C121   1.236       .  S
O101        C132   1.269       .  A
O101       Mg125   2.300       .  S
C102        O104   1.271       .  A
C102        O116   1.279       .  A
C102        C225   1.484       .  S
O103        C131   1.269       .  A
O103       Mg105   2.298       .  S
O104       Mg136   2.264       .  S
Mg105       O111   2.167       .  S
Mg105       O119   2.289       .  S
Mg105       O107   2.342       .  S
C106        O144   1.272       .  A
C106        O112   1.277       .  A
C106        C365   1.490       .  S
O107        C114   1.280       .  A
H108        C121   1.082       .  S
C109        O123   1.234       .  S
C109        O124   1.268       .  A
C109        H134   1.083       .  S
O110        C133   1.269       .  A
O111       Mg125   2.162       .  S
O112       Mg142   2.300       .  S
C113        O126   1.274       .  A
C113        O118   1.279       .  A
C113        C346   1.501       .  S
C114        O141   1.275       .  A
C114        C206   1.496       .  S
Mg115       O122   2.132       .  S
Mg115       O123   2.161       .  S
Mg115       O116   2.322       .  S
Mg115       O117   2.312       .  S
Mg115       O144   2.274       .  S
O117        C121   1.272       .  A
O118       Mg125   2.347       .  S
O119        C138   1.277       .  A
O120        C140   1.273       .  A
O120       Mg136   2.300       .  S
O122       Mg136   2.169       .  S
O122        C133   1.236       .  S
O123       Mg142   2.147       .  S
O124       Mg136   2.292       .  S
Mg125       O141   2.261       .  S
O126       Mg142   2.272       .  S
H127        C132   1.081       .  S
O128       Mg136   2.144       .  S
O128        C131   1.235       .  S
H129        C131   1.083       .  S
H130        C133   1.077       .  S
O135       Mg142   2.302       .  S
C138        O143   1.271       .  A
C138        C402   1.491       .  S
O139        C140   1.273       .  A
C140        C318   1.492       .  S
O145       Mg147   2.127   1_565  S
O145       Mg153   2.151       .  S
O145        C180   1.235       .  S
C146        O159   1.237       .  S
C146        O183   1.272       .  A
C146        H185   1.081       .  S
Mg147       O176   2.167       .  S
Mg147       O191   2.341       .  S
Mg147       O187   2.258       .  S
Mg147       O158   2.310   1_554  S
O148       Mg190   2.171       .  S
O148       Mg173   2.159   1_556  S
O148        C169   1.235       .  S
O149        C180   1.268       .  A
O149       Mg173   2.289       .  S
C150        O152   1.275       .  A
C150        O164   1.275       .  A
C150        C234   1.494       .  S
O151        C179   1.269       .  A
O151       Mg153   2.296   1_545  S
O152       Mg184   2.282       .  S
Mg153       O159   2.159       .  S
Mg153       O167   2.272       .  S
Mg153       O155   2.323       .  S
C154        O192   1.275       .  A
C154        O160   1.279   1_545  A
C154        C430   1.503   1_545  S
O155        C162   1.276       .  A
H156        C169   1.077       .  S
C157        O171   1.236       .  S
C157        O172   1.270       .  A
C157        H182   1.084       .  S
O158        C181   1.273       .  A
O159       Mg173   2.155       .  S
O160       Mg190   2.337       .  S
C161        O174   1.271       .  A
C161        O166   1.275   1_556  A
C161        C290   1.483       .  S
C162        O189   1.276       .  A
C162        C197   1.498       .  S
Mg163       O170   2.163       .  S
Mg163       O171   2.152       .  S
Mg163       O164   2.315       .  S
Mg163       O165   2.297   1_545  S
Mg163       O192   2.279       .  S
O165        C169   1.269       .  A
O166       Mg173   2.280       .  S
O167        C186   1.275   1_565  A
O168        C188   1.276   1_556  A
O168       Mg184   2.290       .  S
O170       Mg184   2.152       .  S
O170        C181   1.238       .  S
O171       Mg190   2.138   1_545  S
O172       Mg184   2.299       .  S
Mg173       O189   2.282       .  S
O174       Mg190   2.265       .  S
H175        C180   1.079       .  S
O176       Mg184   2.158   1_554  S
O176        C179   1.235       .  S
H177        C179   1.083       .  S
H178        C181   1.081       .  S
O183       Mg190   2.307   1_554  S
C186        O191   1.280       .  A
C186        C458   1.501       .  S
O187        C188   1.271       .  A
C188        C262   1.483       .  S
C193        H203   1.083       .  S
C193        C194   1.403       .  A
C193        C198   1.406       .  A
C194        C199   1.487       .  S
C194        C195   1.406       .  A
C195        C196   1.400       .  A
C195        N200   1.428       .  S
C196        H201   1.082       .  S
C196        C197   1.409       .  A
C197        C198   1.421       .  A
C198        N202   1.430       .  S
C199        C204   1.406       .  A
C199        C208   1.404       .  A
N200        O215   1.262       .  A
N200        O216   1.262       .  A
N202        O213   1.262       .  A
N202        O214   1.262       .  A
C204        C205   1.399       .  A
C204        N209   1.428       .  S
C205        H210   1.082       .  S
C205        C206   1.409       .  A
C206        C207   1.418       .  A
C207        C208   1.407       .  A
C207        N211   1.429       .  S
C208        H212   1.083       .  S
N209        O219   1.262       .  A
N209        O220   1.262       .  A
N211        O217   1.262       .  A
N211        O218   1.262       .  A
C221        H231   1.082       .  S
C221        C222   1.404       .  A
C221        C226   1.406       .  A
C222        C227   1.490       .  S
C222        C223   1.413       .  A
C223        C224   1.398       .  A
C223        N228   1.429       .  S
C224        H229   1.083       .  S
C224        C225   1.402       .  A
C225        C226   1.414       .  A
C226        N230   1.428       .  S
C227        C232   1.411       .  A
C227        C236   1.402       .  A
N228        O243   1.262       .  A
N228        O244   1.261       .  A
N230        O241   1.262       .  A
N230        O242   1.262       .  A
C232        C233   1.402       .  A
C232        N237   1.429       .  S
C233        H238   1.083       .  S
C233        C234   1.408       .  A
C234        C235   1.417       .  A
C235        C236   1.402       .  A
C235        N239   1.429       .  S
C236        H240   1.082       .  S
N237        O247   1.262       .  A
N237        O248   1.262       .  A
N239        O245   1.262       .  A
N239        O246   1.262       .  A
C249        H259   1.084       .  S
C249        C250   1.395   1_556  A
C249        C254   1.393       .  A
C250        C255   1.471       .  S
C250        C251   1.408       .  A
C251        C252   1.401       .  A
C251        N256   1.428       .  S
C252        H257   1.083       .  S
C252        C253   1.404       .  A
C253        C254   1.419   1_554  A
C254        N258   1.428       .  S
C255        C260   1.404   1_554  A
C255        C264   1.399       .  A
N256        O271   1.262       .  A
N256        O272   1.261       .  A
N258        O269   1.262       .  A
N258        O270   1.262       .  A
C260        C261   1.396       .  A
C260        N265   1.427       .  S
C261        H266   1.083       .  S
C261        C262   1.408   1_556  A
C262        C263   1.415       .  A
C263        C264   1.397       .  A
C263        N267   1.427       .  S
C264        H268   1.084       .  S
N265        O275   1.262       .  A
N265        O276   1.261       .  A
N267        O273   1.260       .  A
N267        O274   1.262       .  A
C277        H287   1.081       .  S
C277        C278   1.402   1_556  A
C277        C282   1.399       .  A
C278        C283   1.471   1_554  S
C278        C279   1.406       .  A
C279        C280   1.390       .  A
C279        N284   1.430       .  S
C280        H285   1.075       .  S
C280        C281   1.403       .  A
C281        C282   1.410   1_554  A
C282        N286   1.427       .  S
C283        C288   1.405   1_556  A
C283        C292   1.397       .  A
N284        O299   1.262       .  A
N284        O300   1.262       .  A
N286        O297   1.262       .  A
N286        O298   1.261       .  A
C288        C289   1.393       .  A
C288        N293   1.428       .  S
C289        H294   1.083       .  S
C289        C290   1.407   1_554  A
C290        C291   1.416       .  A
C291        C292   1.397       .  A
C291        N295   1.426       .  S
C292        H296   1.083       .  S
N293        O303   1.262       .  A
N293        O304   1.261       .  A
N295        O301   1.261       .  A
N295        O302   1.262       .  A
C305        H315   1.079       .  S
C305        C306   1.407       .  A
C305        C310   1.405       .  A
C306        C311   1.496       .  S
C306        C307   1.414       .  A
C307        C308   1.396       .  A
C307        N312   1.430       .  S
C308        H313   1.081       .  S
C308        C309   1.405       .  A
C309        C310   1.414       .  A
C310        N314   1.428       .  S
C311        C316   1.415       .  A
C311        C320   1.405       .  A
N312        O327   1.262       .  A
N312        O328   1.261       .  A
N314        O325   1.262       .  A
N314        O326   1.261       .  A
C316        C317   1.402       .  A
C316        N321   1.429       .  S
C317        H322   1.079       .  S
C317        C318   1.406       .  A
C318        C319   1.414       .  A
C319        C320   1.400       .  A
C319        N323   1.429       .  S
C320        H324   1.079       .  S
N321        O331   1.262       .  A
N321        O332   1.261       .  A
N323        O329   1.261       .  A
N323        O330   1.262       .  A
C333        H343   1.083       .  S
C333        C334   1.399       .  A
C333        C338   1.406       .  A
C334        C339   1.489       .  S
C334        C335   1.410       .  A
C335        C336   1.405       .  A
C335        N340   1.428       .  S
C336        H341   1.082       .  S
C336        C337   1.408       .  A
C337        C338   1.424       .  A
C338        N342   1.429       .  S
C339        C344   1.408       .  A
C339        C348   1.402       .  A
N340        O355   1.262       .  A
N340        O356   1.262       .  A
N342        O353   1.262       .  A
N342        O354   1.262       .  A
C344        C345   1.405       .  A
C344        N349   1.428       .  S
C345        H350   1.082       .  S
C345        C346   1.411       .  A
C346        C347   1.419       .  A
C347        C348   1.406       .  A
C347        N351   1.428       .  S
C348        H352   1.083       .  S
N349        O359   1.262       .  A
N349        O360   1.262       .  A
N351        O357   1.262       .  A
N351        O358   1.262       .  A
C361        H371   1.082       .  S
C361        C362   1.402       .  A
C361        C366   1.401       .  A
C362        C367   1.483       .  S
C362        C363   1.409       .  A
C363        C364   1.398       .  A
C363        N368   1.429       .  S
C364        H369   1.083       .  S
C364        C365   1.408       .  A
C365        C366   1.417       .  A
C366        N370   1.429       .  S
C367        C372   1.412       .  A
C367        C376   1.401       .  A
N368        O383   1.262       .  A
N368        O384   1.262       .  A
N370        O381   1.262       .  A
N370        O382   1.262       .  A
C372        C373   1.397       .  A
C372        N377   1.428       .  S
C373        H378   1.083       .  S
C373        C374   1.400       .  A
C374        C375   1.417       .  A
C375        C376   1.401       .  A
C375        N379   1.430       .  S
C376        H380   1.082       .  S
N377        O387   1.262       .  A
N377        O388   1.261       .  A
N379        O385   1.262       .  A
N379        O386   1.262       .  A
C389        H399   1.083       .  S
C389        C390   1.396       .  A
C389        C394   1.398       .  A
C390        C395   1.478       .  S
C390        C391   1.408       .  A
C391        C392   1.401       .  A
C391        N396   1.427       .  S
C392        H397   1.082       .  S
C392        C393   1.406       .  A
C393        C394   1.422       .  A
C394        N398   1.427       .  S
C395        C400   1.409       .  A
C395        C404   1.396       .  A
N396        O411   1.262       .  A
N396        O412   1.262       .  A
N398        O409   1.262       .  A
N398        O410   1.262       .  A
C400        C401   1.401       .  A
C400        N405   1.428       .  S
C401        H406   1.082       .  S
C401        C402   1.406       .  A
C402        C403   1.422       .  A
C403        C404   1.398       .  A
C403        N407   1.428       .  S
C404        H408   1.083       .  S
N405        O415   1.262       .  A
N405        O416   1.262       .  A
N407        O413   1.262       .  A
N407        O414   1.262       .  A
C417        H427   1.080       .  S
C417        C418   1.406       .  A
C417        C422   1.409       .  A
C418        C423   1.495       .  S
C418        C419   1.411   1_545  A
C419        C420   1.401       .  A
C419        N424   1.429       .  S
C420        H425   1.072       .  S
C420        C421   1.404   1_565  A
C421        C422   1.414       .  A
C422        N426   1.428       .  S
C423        C428   1.412       .  A
C423        C432   1.401   1_545  A
N424        O439   1.262       .  A
N424        O440   1.262       .  A
N426        O437   1.262       .  A
N426        O438   1.261       .  A
C428        C429   1.405       .  A
C428        N433   1.428       .  S
C429        H434   1.081       .  S
C429        C430   1.409   1_545  A
C430        C431   1.417       .  A
C431        C432   1.403       .  A
C431        N435   1.423       .  S
C432        H436   1.082       .  S
N433        O443   1.262       .  A
N433        O444   1.262       .  A
N435        O441   1.261       .  A
N435        O442   1.262       .  A
C445        H455   1.082       .  S
C445        C446   1.404   1_545  A
C445        C450   1.409       .  A
C446        C451   1.496   1_565  S
C446        C447   1.414       .  A
C447        C448   1.399       .  A
C447        N452   1.430       .  S
C448        H453   1.082       .  S
C448        C449   1.406       .  A
C449        C450   1.419   1_565  A
C450        N454   1.428       .  S
C451        C456   1.413   1_545  A
C451        C460   1.401       .  A
N452        O467   1.262       .  A
N452        O468   1.261       .  A
N454        O465   1.262       .  A
N454        O466   1.262   1_545  A
C456        C457   1.406       .  A
C456        N461   1.428       .  S
C457        H462   1.082       .  S
C457        C458   1.409   1_565  A
C458        C459   1.416       .  A
C459        C460   1.401       .  A
C459        N463   1.423       .  S
C460        H464   1.082       .  S
N461        O471   1.262       .  A
N461        O472   1.262       .  A
N463        O469   1.262       .  A
N463        O470   1.261       .  A
C473        H483   1.082       .  S
C473        C474   1.400   1_455  A
C473        C478   1.401       .  A
C474        C479   1.489       .  S
C474        C475   1.412       .  A
C475        C476   1.401       .  A
C475        N480   1.428       .  S
C476        H481   1.082       .  S
C476        C477   1.406       .  A
C477        C478   1.418   1_655  A
C478        N482   1.427       .  S
C479        C484   1.412   1_655  A
C479        C488   1.400       .  A
N480        O495   1.262       .  A
N480        O496   1.262       .  A
N482        O493   1.262       .  A
N482        O494   1.262       .  A
C484        C485   1.401       .  A
C484        N489   1.429       .  S
C485        H490   1.082       .  S
C485        C486   1.406   1_455  A
C486        C487   1.423       .  A
C487        C488   1.403       .  A
C487        N491   1.429       .  S
C488        H492   1.082       .  S
N489        O499   1.262       .  A
N489        O500   1.262       .  A
N491        O497   1.262       .  A
N491        O498   1.262       .  A
C501        H511   1.083       .  S
C501        C502   1.402       .  A
C501        C506   1.405       .  A
C502        C507   1.481       .  S
C502        C503   1.405   1_455  A
C503        C504   1.399       .  A
C503        N508   1.429       .  S
C504        H509   1.078       .  S
C504        C505   1.410   1_655  A
C505        C506   1.418       .  A
C506        N510   1.428       .  S
C507        C512   1.409   1_455  A
C507        C516   1.398       .  A
N508        O523   1.262       .  A
N508        O524   1.261       .  A
N510        O521   1.262       .  A
N510        O522   1.262       .  A
C512        C513   1.402       .  A
C512        N517   1.428       .  S
C513        H518   1.082       .  S
C513        C514   1.407       .  A
C514        C515   1.422   1_655  A
C515        C516   1.402       .  A
C515        N519   1.429       .  S
C516        H520   1.083       .  S
N517        O527   1.262       .  A
N517        O528   1.262       .  A
N519        O525   1.261       .  A
N519        O526   1.262       .  A
