geometry optimzed in LAMMPS
_audit_creation_date              2020-11-30 
_audit_creation_method            'lammps2cif' 
_symmetry_space_group_name_H-M    'P1' 
_symmetry_Int_Tables_number       1 
_symmetry_cell_setting            triclinic 
loop_ 
_symmetry_equiv_pos_as_xyz 
  x,y,z 
_cell_length_a                    35.77456577 
_cell_length_b                    36.023157289565376 
_cell_length_c                    34.649778916673995 
_cell_angle_alpha                 89.4990499392041 
_cell_angle_beta                  89.8839541769281 
_cell_angle_gamma                 89.11952389157526 
loop_ 
_atom_site_label 
_atom_site_type_symbol 
_atom_site_fract_x 
_atom_site_fract_y 
_atom_site_fract_z 
_atom_site_charge 
C1          C  0.35978303  0.97363453  0.22363922     0.02100
C2          C  0.36767536  0.01212750  0.22237748     0.02100
C3          C  0.37046301  0.03158174  0.25724427    -0.18400
C4          C  0.36732288  0.01315183  0.29298406     0.02100
C5          C  0.35997479  0.97478260  0.29400166     0.02100
C6          C  0.35586849  0.95553877  0.25940913    -0.18400
H7          H  0.35104325  0.92589612  0.26032813     0.04100
H8          H  0.37719814  0.06081920  0.25666508     0.04100
In9        In  0.40756027  0.11791286  0.00674357     1.36900
C10         C  0.48206690  0.12609801  0.50650483     0.77400
O11         O  0.39397436  0.11902867  0.07031086    -0.61000
O12         O  0.40605986  0.06693602  0.04526635    -0.51900
C13         C  0.35616990  0.17230763  0.00254438     0.70100
O14         O  0.39151881  0.17798704  0.50392375    -0.46800
C15         C  0.39380593  0.08606364  0.43811243     0.74800
O16         O  0.45879164  0.15379818  0.01046359    -0.58700
O17         O  0.37701863  0.07701715  0.46874394    -0.48700
O18         O  0.46672508  0.09504910  0.50287839    -0.55100
C19         C  0.39740434  0.08450804  0.07534637     0.85000
O20         O  0.34884811  0.13832505  0.00016683    -0.57000
O21         O  0.41806976  0.11068574  0.44231637    -0.60300
In22       In  0.38155877  0.86707142  0.50968583     1.36900
C23         C  0.45575499  0.86690753  0.00836170     0.77400
O24         O  0.39033410  0.86787243  0.44571982    -0.61000
O25         O  0.35631912  0.91047280  0.47001946    -0.51900
C26         C  0.33256405  0.81194025  0.51037660     0.70100
O27         O  0.36727060  0.80604702  0.00949204    -0.46800
C28         C  0.37172039  0.89692569  0.07863866     0.74800
O29         O  0.43728748  0.83703793  0.51146279    -0.58700
O30         O  0.36053208  0.91255503  0.04795390    -0.48700
O31         O  0.43585151  0.89614700  0.00765142    -0.55100
C32         C  0.37144707  0.89721901  0.44010836     0.85000
O33         O  0.32330620  0.84574889  0.51141259    -0.57000
O34         O  0.38732020  0.86570932  0.07377943    -0.60300
C35         C  0.73621767  0.02941127  0.21910828     0.02100
C36         C  0.72563509  0.99156863  0.21805768     0.02100
C37         C  0.72206602  0.97180997  0.25301851    -0.18400
C38         C  0.72712126  0.98939968  0.28858889     0.02100
C39         C  0.73624197  0.02730835  0.28943573     0.02100
C40         C  0.74191472  0.04654347  0.25480817    -0.18400
H41         H  0.74929950  0.07560215  0.25571942     0.04100
H42         H  0.71430963  0.94284235  0.25261192     0.04100
In43       In  0.71811005  0.13402910  0.50421587     1.36900
C44         C  0.64365672  0.13401114  0.00753171     0.77400
O45         O  0.70650224  0.13067335  0.44082951    -0.61000
O46         O  0.74509511  0.09179818  0.46513060    -0.51900
C47         C  0.76605185  0.18967113  0.50188333     0.70100
O48         O  0.73171893  0.19540077  0.00326956    -0.46800
C49         C  0.73237492  0.10529080  0.07264088     0.74800
O50         O  0.66194670  0.16328242  0.50701328    -0.58700
O51         O  0.73828880  0.08792137  0.04174165    -0.48700
O52         O  0.66384879  0.10507856  0.00985568    -0.55100
C53         C  0.72799848  0.10314211  0.43538965     0.85000
O54         O  0.77564080  0.15594553  0.50215778    -0.57000
O55         O  0.71951994  0.13781231  0.06809607    -0.60300
In56       In  0.69134542  0.88412265  0.00461983     1.34500
C57         C  0.61730964  0.87692820  0.50593908     0.77400
O58         O  0.70417847  0.88315345  0.06822648    -0.61000
O59         O  0.69686408  0.93553727  0.04077940    -0.51900
C60         C  0.74151445  0.82856972  0.00277117     0.70100
O61         O  0.70628240  0.82353350  0.50723080    -0.46800
C62         C  0.70197057  0.91693737  0.43526973     0.74800
O63         O  0.63935022  0.84944201  0.00025382    -0.58700
O64         O  0.72308866  0.92217416  0.46370000    -0.48700
O65         O  0.63344416  0.90708662  0.51243335    -0.55100
C66         C  0.70364482  0.91796040  0.07167024     0.85000
O67         O  0.74946856  0.86219871  0.99774130    -0.57000
O68         O  0.67547317  0.89526216  0.44199263    -0.60300
C69         C  0.08016270  0.31338455  0.20942201     0.02100
C70         C  0.04096891  0.31945333  0.20719000     0.02100
C71         C  0.01978236  0.32053143  0.24129409    -0.18400
C72         C  0.03691814  0.31775730  0.27762538     0.02100
C73         C  0.07643888  0.31439253  0.27987384     0.02100
C74         C  0.09739249  0.31146938  0.24572151    -0.18400
H75         H  0.12758792  0.30894091  0.24731597     0.04100
H76         H  0.98972130  0.32447346  0.23956804     0.04100
In77       In  0.18633024  0.33733785  0.49298722     1.36900
C78         C  0.18401395  0.41125265  0.99284742     0.77400
O79         O  0.18693248  0.32974239  0.42860681    -0.61000
O80         O  0.13508577  0.32591162  0.45825230    -0.51900
C81         C  0.24210542  0.28743973  0.49343636     0.70100
O82         O  0.24643685  0.32221972  0.99220041    -0.46800
C83         C  0.15875429  0.32495263  0.06453912     0.74800
O84         O  0.21588561  0.39255607  0.48922369    -0.58700
O85         O  0.14423678  0.31140302  0.03470191    -0.48700
O86         O  0.15534420  0.39176280  0.99655528    -0.55100
C87         C  0.15210620  0.32554355  0.42639801     0.85000
O88         O  0.20814436  0.27918586  0.49725856    -0.57000
O89         O  0.18754378  0.34386115  0.05820302    -0.60300
In90       In  0.93180042  0.35366238  0.99328185     1.36900
C91         C  0.92244745  0.42698212  0.49767887     0.77400
O92         O  0.93189495  0.33555435  0.05571615    -0.61000
O93         O  0.98325448  0.35158830  0.03058824    -0.51900
C94         C  0.87729062  0.30472994  0.99435595     0.70100
O95         O  0.87077263  0.33916545  0.49054250    -0.46800
C96         C  0.96020181  0.33974916  0.42291293     0.74800
O97         O  0.89465101  0.40520856  0.99398794    -0.58700
O98         O  0.97287164  0.32473651  0.45326718    -0.48700
O99         O  0.95391951  0.41103482  0.49482835    -0.55100
C100        C  0.96639066  0.34023343  0.06029423     0.85000
O101        O  0.91132166  0.29599005  0.98998824    -0.57000
O102        O  0.93272406  0.36128488  0.42847951    -0.60300
C103        C  0.02187608  0.67753365  0.20890454     0.02100
C104        C  0.06121887  0.67356323  0.20985902     0.02100
C105        C  0.07954324  0.67179503  0.24554178    -0.18400
C106        C  0.05940105  0.67265485  0.28034029     0.02100
C107        C  0.02010885  0.67875766  0.27945223     0.02100
C108        C  0.00185300  0.68087129  0.24359698    -0.18400
H109        H  0.97168929  0.68414015  0.24268892     0.04100
H110        H  0.10971468  0.66870836  0.24627066     0.04100
In111      In  0.16836337  0.64599306  0.99475444     1.36900
C112        C  0.17822765  0.57251048  0.49132254     0.77400
O113        O  0.16345068  0.63582578  0.05836000    -0.61000
O114        O  0.12555840  0.67417286  0.03227516    -0.51900
C115        C  0.22223094  0.69590678  0.00026296     0.70100
O116        O  0.22942830  0.66139972  0.49696154    -0.46800
C117        C  0.13585071  0.65685964  0.42662498     0.74800
O118        O  0.20447116  0.59407806  0.98979224    -0.58700
O119        O  0.11780237  0.65010964  0.45704504    -0.48700
O120        O  0.14674743  0.58866572  0.49126257    -0.55100
C121        C  0.13619761  0.65797424  0.06281051     0.85000
O122        O  0.18797192  0.70439606  0.99797284    -0.57000
O123        O  0.17067506  0.65890388  0.43124423    -0.60300
In124      In  0.91094942  0.66199808  0.49556074     1.36900
C125        C  0.91208601  0.58825513  0.99887360     0.77400
O126        O  0.91015281  0.65650888  0.43108781    -0.61000
O127        O  0.95623441  0.68338948  0.45594926    -0.51900
C128        C  0.85437709  0.71168313  0.49816945     0.70100
O129        O  0.85006269  0.67746574  0.99724207    -0.46800
C130        C  0.94561746  0.67097377  0.06289698     0.74800
O131        O  0.88197386  0.60651393  0.49719558    -0.58700
O132        O  0.96207963  0.67585991  0.03108668    -0.48700
O133        O  0.94100793  0.60767203  0.99984204    -0.55100
C134        C  0.94108887  0.67194972  0.42551295     0.85000
O135        O  0.88837604  0.71998987  0.49982377    -0.57000
O136        O  0.91152491  0.66296541  0.06051460    -0.60300
C137        C  0.96904867  0.65427323  0.32098489    -0.26500
C138        C  0.99732118  0.68033861  0.31549547    -0.14600
C139        C  0.00490746  0.70575526  0.34512154     0.36100
C140        C  0.98601057  0.70270420  0.38067104    -0.25900
C141        C  0.95862298  0.67566694  0.38673633    -0.15200
C142        C  0.94958108  0.65162277  0.35615244     0.37200
N143        N  0.92201181  0.62338128  0.36134945    -0.89400
H144        H  0.96313782  0.63489202  0.29812466     0.18300
H145        H  0.99268979  0.72155872  0.40376130     0.18300
N146        N  0.03195371  0.73432351  0.33903269    -0.88400
H147        H  0.92097034  0.60626451  0.33719072     0.35600
H148        H  0.89589595  0.63673087  0.36295318     0.40700
H149        H  0.03447025  0.75062656  0.36366780     0.40400
H150        H  0.02189751  0.75179557  0.31701139     0.35300
C151        C  0.00306959  0.64345671  0.14997867    -0.26500
C152        C  0.00116544  0.67602231  0.17191209    -0.14600
C153        C  0.98084010  0.70699564  0.15778306     0.36100
C154        C  0.96277326  0.70504207  0.12194831    -0.25900
C155        C  0.96513464  0.67265708  0.09996856    -0.15200
C156        C  0.98550315  0.64159117  0.11387196     0.37200
N157        N  0.98766112  0.60815511  0.09154380    -0.89400
H158        H  0.01852777  0.61956857  0.16099886     0.18300
H159        H  0.94711040  0.72892009  0.11113565     0.18300
N160        N  0.97919389  0.74064528  0.17943321    -0.88400
H161        H  0.00320950  0.58766281  0.10617631     0.35600
H162        H  0.00237081  0.61417160  0.06620434     0.40700
H163        H  0.95110119  0.74704595  0.18488546     0.40400
H164        H  0.99013765  0.76190080  0.16224968     0.35300
C165        C  0.10912350  0.69068203  0.32615438    -0.26500
C166        C  0.08016356  0.66637350  0.31706613    -0.14600
C167        C  0.07119877  0.63750593  0.34348620     0.36100
C168        C  0.08887914  0.63613751  0.37951283    -0.25900
C169        C  0.11753532  0.66065869  0.38864704    -0.15200
C170        C  0.12832641  0.68778195  0.36142367     0.37200
N171        N  0.15745662  0.71336279  0.37033544    -0.89400
H172        H  0.11630686  0.71248485  0.30583353     0.18300
H173        H  0.08116285  0.61467267  0.40003123     0.18300
N174        N  0.04502786  0.60884784  0.33465662    -0.88400
H175        H  0.16021766  0.73306580  0.34819478     0.35600
H176        H  0.18266763  0.69835860  0.37107209     0.40700
H177        H  0.05908129  0.58331658  0.33754235     0.40400
H178        H  0.03675623  0.61021859  0.30582661     0.35300
C179        C  0.08195034  0.70003393  0.14682523    -0.26500
C180        C  0.08329439  0.67057769  0.17362981    -0.14600
C181        C  0.10268974  0.63749296  0.16394779     0.36100
C182        C  0.12018725  0.63455889  0.12802740    -0.25900
C183        C  0.11799638  0.66350998  0.10071850    -0.15200
C184        C  0.09854319  0.69667396  0.11015676     0.37200
N185        N  0.09602793  0.72692502  0.08289221    -0.89400
H186        H  0.06684561  0.72531146  0.15418753     0.18300
H187        H  0.13468317  0.60885275  0.12096677     0.18300
N188        N  0.10359107  0.60576715  0.18918717    -0.88400
H189        H  0.08306840  0.75005495  0.09547821     0.35600
H190        H  0.07831511  0.71876114  0.06066444     0.40700
H191        H  0.07615150  0.59856166  0.19599271     0.40400
H192        H  0.11745993  0.61260941  0.21455744     0.35300
C193        C  0.88132258  0.52618040  0.99595820    -0.26500
C194        C  0.91396941  0.54699543  0.00025556    -0.14600
C195        C  0.94963709  0.52801262  0.50041388     0.36100
C196        C  0.95113409  0.48915676  0.50075981    -0.25900
C197        C  0.91852979  0.46807908  0.49913100    -0.15200
C198        C  0.88279404  0.48706107  0.99561349     0.37200
N199        N  0.84897562  0.46676855  0.99131136    -0.89400
H200        H  0.85453705  0.54025618  0.99251985     0.18300
H201        H  0.97829065  0.47545053  0.50203478     0.18300
N202        N  0.98388193  0.54805445  0.50204669    -0.88400
H203        H  0.83635254  0.47515436  0.96543028     0.35600
H204        H  0.83100041  0.47404920  0.01393847     0.40700
H205        H  0.00044659  0.54019021  0.47852285     0.40400
H206        H  0.99795515  0.54019503  0.52733393     0.35300
C207        C  0.21539391  0.47272397  0.99123289    -0.26500
C208        C  0.18212015  0.45249535  0.99207628    -0.14600
C209        C  0.14919026  0.47206480  0.48766013     0.36100
C210        C  0.14864851  0.51094409  0.48845688    -0.25900
C211        C  0.18171592  0.53135273  0.48993143    -0.15200
C212        C  0.21490259  0.51185284  0.99133398     0.37200
N213        N  0.24944467  0.53170036  0.99067403    -0.89400
H214        H  0.24199618  0.45795146  0.99087716     0.18300
H215        H  0.12187886  0.52541582  0.48790587     0.18300
N216        N  0.11444872  0.45253259  0.48615559    -0.88400
H217        H  0.27222800  0.51327319  0.98860012     0.35600
H218        H  0.25200677  0.54493374  0.01724091     0.40700
H219        H  0.11290627  0.44017057  0.45906723     0.40400
H220        H  0.09163015  0.47095934  0.48780494     0.35300
C221        C  0.99456538  0.30036511  0.15808383    -0.26500
C222        C  0.02153707  0.32588683  0.16972629    -0.14600
C223        C  0.02922418  0.35683504  0.14554379     0.36100
C224        C  0.01189054  0.35983918  0.10944763    -0.25900
C225        C  0.98535181  0.33413356  0.09766814    -0.15200
C226        C  0.97628091  0.30421305  0.12231740     0.37200
N227        N  0.94906748  0.27758549  0.11069763    -0.89400
H228        H  0.98829552  0.27696538  0.17674510     0.18300
H229        H  0.01803187  0.38350145  0.09108210     0.18300
N230        N  0.05253590  0.38683422  0.15732632    -0.88400
H231        H  0.94554333  0.25739502  0.13220570     0.35600
H232        H  0.95969728  0.26382016  0.08650302     0.40700
H233        H  0.06216628  0.38342157  0.18555177     0.40400
H234        H  0.07574060  0.38743758  0.13899571     0.35300
C235        C  0.99209333  0.35296688  0.31885251    -0.26500
C236        C  0.01322399  0.32033330  0.31293796    -0.14600
C237        C  0.01389124  0.29258063  0.34218099     0.36100
C238        C  0.99629887  0.29961416  0.37761015    -0.25900
C239        C  0.97666137  0.33299331  0.38422952    -0.15200
C240        C  0.97373782  0.35960800  0.35411599     0.37200
N241        N  0.95332750  0.39383012  0.35980052    -0.89400
H242        H  0.99137511  0.37414241  0.29644180     0.18300
H243        H  0.99775149  0.27855589  0.40011168     0.18300
N244        N  0.03138127  0.25679114  0.33678623    -0.88400
H245        H  0.95334705  0.40998808  0.33458073     0.35600
H246        H  0.96752920  0.40895718  0.38063940     0.40700
H247        H  0.04148740  0.25347629  0.30873986     0.40400
H248        H  0.05413548  0.25467322  0.35558954     0.35300
C249        C  0.14106757  0.29263187  0.36483482    -0.26500
C250        C  0.13256464  0.32233007  0.38935164    -0.14600
C251        C  0.10614598  0.34958917  0.37762318     0.36100
C252        C  0.08924000  0.34705884  0.34151208    -0.25900
C253        C  0.09653598  0.31670412  0.31734984    -0.15200
C254        C  0.12273070  0.28923180  0.32922935     0.37200
N255        N  0.12989874  0.25735877  0.30577842    -0.89400
H256        H  0.16132768  0.27159628  0.37374139     0.18300
H257        H  0.07000707  0.36890703  0.33236054     0.18300
N258        N  0.09670737  0.38065908  0.40143975    -0.88400
H259        H  0.12343777  0.23366995  0.32201387     0.35600
H260        H  0.15845518  0.25632172  0.29946933     0.40700
H261        H  0.12125279  0.39481718  0.40759837     0.40400
H262        H  0.08537188  0.37075016  0.42729224     0.35300
C263        C  0.13087448  0.33978736  0.16929775    -0.26500
C264        C  0.10400500  0.31214832  0.17426382    -0.14600
C265        C  0.09885041  0.28590063  0.14464138     0.36100
C266        C  0.11767381  0.29040954  0.10951746    -0.25900
C267        C  0.14248273  0.31969755  0.10346907    -0.15200
C268        C  0.15000166  0.34410169  0.13413916     0.37200
N269        N  0.17571490  0.37406990  0.12914589    -0.89400
H270        H  0.13526671  0.35953182  0.19221240     0.18300
H271        H  0.11272590  0.27075375  0.08664968     0.18300
N272        N  0.07570822  0.25390377  0.14939746    -0.88400
H273        H  0.17878027  0.38863538  0.15489113     0.35600
H274        H  0.16389924  0.39281050  0.10925645     0.40700
H275        H  0.06434312  0.25222718  0.17709392     0.40400
H276        H  0.05358652  0.25630575  0.12982531     0.35300
C277        C  0.83456670  0.77766337  0.50482793    -0.26500
C278        C  0.82414712  0.74061221  0.49952906    -0.14600
C279        C  0.78698165  0.73253541  0.99547639     0.36100
C280        C  0.76002835  0.76150475  0.99714927    -0.25900
C281        C  0.77048972  0.79853722  0.00257332    -0.15200
C282        C  0.80794963  0.80661823  0.50656861     0.37200
N283        N  0.81987942  0.84394918  0.51340441    -0.89400
H284        H  0.86383958  0.78421421  0.50807264     0.18300
H285        H  0.73073306  0.75518957  0.99357505     0.18300
N286        N  0.77543249  0.69497228  0.98958236    -0.88400
H287        H  0.84900358  0.84508876  0.51514973     0.35600
H288        H  0.80959478  0.85180813  0.54046064     0.40700
H289        H  0.78522495  0.68681090  0.96246302     0.40400
H290        H  0.74627379  0.69357878  0.98848773     0.35300
C291        C  0.78320330  0.25620638  0.99495578    -0.26500
C292        C  0.79384355  0.21971378  0.50190911    -0.14600
C293        C  0.83123635  0.21249060  0.51311862     0.36100
C294        C  0.85744061  0.24086300  0.51046077    -0.25900
C295        C  0.84791999  0.27622961  0.99605518    -0.15200
C296        C  0.80939888  0.28495726  0.99281577     0.37200
N297        N  0.79697731  0.32269915  0.98679829    -0.89400
H298        H  0.75369110  0.26285167  0.99214591     0.18300
H299        H  0.88605358  0.23497639  0.51901922     0.18300
N300        N  0.84256072  0.17645069  0.52747584    -0.88400
H301        H  0.76778472  0.32435321  0.98583327     0.35600
H302        H  0.80649211  0.33111790  0.95959665     0.40700
H303        H  0.82868640  0.17208581  0.55367668     0.40400
H304        H  0.87116066  0.17562395  0.53366798     0.35300
C305        C  0.74048711  0.94093644  0.17140080    -0.26500
C306        C  0.71834637  0.97204880  0.18097597    -0.14600
C307        C  0.69092086  0.98497188  0.15451950     0.36100
C308        C  0.68757226  0.96768018  0.11845292    -0.25900
C309        C  0.70970115  0.93658855  0.10900132    -0.15200
C310        C  0.73645044  0.92305820  0.13570866     0.37200
N311        N  0.75999285  0.89176318  0.12611563    -0.89400
H312        H  0.76160579  0.93109882  0.19156502     0.18300
H313        H  0.66679502  0.97780985  0.09805180     0.18300
N314        N  0.66651459  0.01548246  0.16443739    -0.88400
H315        H  0.77818959  0.88529454  0.14886202     0.35600
H316        H  0.77668909  0.89956164  0.10269659     0.40700
H317        H  0.65006138  0.00701709  0.18776410     0.40400
H318        H  0.64826858  0.02188671  0.14170819     0.35300
C319        C  0.68471823  0.96370838  0.33820046    -0.26500
C320        C  0.72138775  0.96834985  0.32489698    -0.14600
C321        C  0.75174857  0.95513481  0.34757495     0.36100
C322        C  0.74459629  0.93879051  0.38361279    -0.25900
C323        C  0.70795318  0.93452963  0.39717379    -0.15200
C324        C  0.67762726  0.94684268  0.37414892     0.37200
N325        N  0.63987101  0.94306298  0.38776570    -0.89400
H326        H  0.66161852  0.97410398  0.32080650     0.18300
H327        H  0.76791357  0.92879361  0.40094380     0.18300
N328        N  0.78995042  0.95701748  0.33475638    -0.88400
H329        H  0.62089046  0.95340303  0.36728308     0.35600
H330        H  0.63676441  0.95966830  0.41220591     0.40700
H331        H  0.79217584  0.96928953  0.30747739     0.40400
H332        H  0.80437110  0.97374165  0.35401259     0.35300
C333        C  0.70011879  0.08389980  0.37351871    -0.26500
C334        C  0.73166964  0.08507570  0.39741652    -0.14600
C335        C  0.76563711  0.06860624  0.38494339     0.36100
C336        C  0.76703086  0.05060644  0.34903524    -0.25900
C337        C  0.73506110  0.04842729  0.32591110    -0.15200
C338        C  0.70146395  0.06567475  0.33790836     0.37200
N339        N  0.66868161  0.06397875  0.31409599    -0.89400
H340        H  0.67407277  0.09658888  0.38305677     0.18300
H341        H  0.79299281  0.03815876  0.33906920     0.18300
N342        N  0.79855164  0.07055862  0.40851542    -0.88400
H343        H  0.64597637  0.07716361  0.32753425     0.35600
H344        H  0.67401913  0.07910043  0.28885505     0.40700
H345        H  0.80569367  0.09851736  0.41049117     0.40400
H346        H  0.82109679  0.05696952  0.39520348     0.35300
C347        C  0.76222980  0.03938350  0.15311892    -0.26500
C348        C  0.73946870  0.05212204  0.18339489    -0.14600
C349        C  0.71752781  0.08471359  0.17822886     0.36100
C350        C  0.71769636  0.10290851  0.14233515    -0.25900
C351        C  0.73808373  0.08842444  0.11114102    -0.15200
C352        C  0.76118410  0.05671270  0.11672693     0.37200
N353        N  0.78284533  0.04176475  0.08535250    -0.89400
H354        H  0.77963850  0.01483370  0.15748325     0.18300
H355        H  0.69998456  0.12726640  0.13807859     0.18300
N356        N  0.69367999  0.09809513  0.20873251    -0.88400
H357        H  0.79746211  0.01778880  0.09411204     0.35600
H358        H  0.80289154  0.06138528  0.07785429     0.40700
H359        H  0.67327397  0.07815569  0.21380086     0.40400
H360        H  0.67950181  0.12239408  0.20022569     0.35300
C361        C  0.31597485  0.74531816  0.00235891    -0.26500
C362        C  0.30473728  0.78177067  0.51050342    -0.14600
C363        C  0.26679636  0.78868919  0.51988065     0.36100
C364        C  0.24085160  0.76007989  0.51631424    -0.25900
C365        C  0.25141781  0.72458479  0.00392279    -0.15200
C366        C  0.29001253  0.71643017  0.99983674     0.37200
N367        N  0.30283185  0.67906328  0.99292152    -0.89400
H368        H  0.34543177  0.73914662  0.99818281     0.18300
H369        H  0.21174363  0.76581131  0.52300668     0.18300
N370        N  0.25465785  0.82458711  0.53330115    -0.88400
H371        H  0.33201753  0.67766387  0.99222037     0.35600
H372        H  0.29372418  0.67167926  0.96540354     0.40700
H373        H  0.26740467  0.82889213  0.55997996     0.40400
H374        H  0.22582436  0.82512458  0.53839323     0.35300
C375        C  0.51392129  0.90280164  0.50378582    -0.26500
C376        C  0.49721661  0.86820166  0.00723432    -0.14600
C377        C  0.52009300  0.83593184  0.00781031     0.36100
C378        C  0.55923105  0.83914371  0.00746674    -0.25900
C379        C  0.57596522  0.87414430  0.50520837    -0.15200
C380        C  0.55287921  0.90631285  0.50257386     0.37200
N381        N  0.56890092  0.94251022  0.49824084    -0.89400
H382        H  0.49657333  0.92768243  0.50218688     0.18300
H383        H  0.57642790  0.81412873  0.00844827     0.18300
N384        N  0.50386729  0.79984480  0.00873243    -0.88400
H385        H  0.54811935  0.96316853  0.49773459     0.35600
H386        H  0.58205750  0.94345352  0.47122876     0.40700
H387        H  0.51366055  0.78583203  0.03334122     0.40400
H388        H  0.51332571  0.78531493  0.98451173     0.35300
C389        C  0.26228247  0.22153721  0.50100159    -0.26500
C390        C  0.27234703  0.25856856  0.49427854    -0.14600
C391        C  0.30957178  0.26769645  0.99235935     0.36100
C392        C  0.33678539  0.23906527  0.99530960    -0.25900
C393        C  0.32663881  0.20181668  0.00053915    -0.15200
C394        C  0.28922786  0.19293930  0.50406891     0.37200
N395        N  0.27764743  0.15568720  0.51260953    -0.89400
H396        H  0.23307973  0.21479463  0.50471190     0.18300
H397        H  0.36610509  0.24586549  0.99304429     0.18300
N398        N  0.32087318  0.30545831  0.98657386    -0.88400
H399        H  0.24851523  0.15422190  0.51398972     0.35600
H400        H  0.28748808  0.14882281  0.54020969     0.40700
H401        H  0.31199381  0.31372509  0.95903043     0.40400
H402        H  0.35001244  0.30722620  0.98649397     0.35300
C403        C  0.58128640  0.16206531  0.52018049    -0.26500
C404        C  0.60227790  0.13252193  0.00722170    -0.14600
C405        C  0.58384167  0.10045634  0.99452842     0.36100
C406        C  0.54461938  0.09972254  0.99480449    -0.25900
C407        C  0.52345663  0.12965120  0.50644828    -0.15200
C408        C  0.54207417  0.16139311  0.52011886     0.37200
N409        N  0.52216206  0.19303100  0.53483109    -0.89400
H410        H  0.59513076  0.18636774  0.53109543     0.18300
H411        H  0.53082171  0.07497580  0.98497312     0.18300
N412        N  0.60492828  0.06888087  0.98078651    -0.88400
H413        H  0.50511381  0.18437397  0.55761799     0.35600
H414        H  0.50548589  0.20433561  0.51281291     0.40700
H415        H  0.61875919  0.07705022  0.95554305     0.40400
H416        H  0.58717485  0.04741580  0.97305127     0.35300
C417        C  0.39590457  0.93875865  0.34255136    -0.26500
C418        C  0.36124123  0.95343849  0.33071935    -0.14600
C419        C  0.32934135  0.94816917  0.35427340     0.36100
C420        C  0.33340911  0.92973240  0.38989138    -0.25900
C421        C  0.36814751  0.91518308  0.40179040    -0.15200
C422        C  0.39966129  0.91920555  0.37759743     0.37200
N423        N  0.43565819  0.90493948  0.38942592    -0.89400
H424        H  0.42019783  0.94279916  0.32432623     0.18300
H425        H  0.30910057  0.92631086  0.40823207     0.18300
N426        N  0.29253069  0.96048259  0.34288326    -0.88400
H427        H  0.45626274  0.91255168  0.36954786     0.35600
H428        H  0.43460276  0.87598092  0.38871577     0.40700
H429        H  0.29272645  0.97363456  0.31590996     0.40400
H430        H  0.28320572  0.98008729  0.36290001     0.35300
C431        C  0.38730095  0.92419928  0.18298685    -0.26500
C432        C  0.35893683  0.95104790  0.18807656    -0.14600
C433        C  0.33301003  0.95798116  0.15797367     0.36100
C434        C  0.33784227  0.93987921  0.12266805    -0.25900
C435        C  0.36713991  0.91412057  0.11699560    -0.15200
C436        C  0.39182589  0.90572103  0.14774553     0.37200
N437        N  0.42217937  0.87955597  0.14275487    -0.89400
H438        H  0.40712889  0.91896749  0.20609154     0.18300
H439        H  0.31825774  0.94581418  0.09951806     0.18300
N440        N  0.30122759  0.98250794  0.16234921    -0.88400
H441        H  0.43727327  0.87619676  0.16839286     0.35600
H442        H  0.44060155  0.89085888  0.12251055     0.40700
H443        H  0.29911914  0.99282171  0.19033584     0.40400
H444        H  0.30486346  0.00514652  0.14371667     0.35300
C445        C  0.34432818  0.04218539  0.35340928    -0.26500
C446        C  0.37458030  0.03365232  0.32906596    -0.14600
C447        C  0.41118454  0.04327152  0.34038821     0.36100
C448        C  0.41633255  0.06164122  0.37542356    -0.25900
C449        C  0.38626652  0.06890298  0.40040498    -0.15200
C450        C  0.34981297  0.05920188  0.38928160     0.37200
N451        N  0.31853436  0.06699251  0.41419797    -0.89400
H452        H  0.31634080  0.03535190  0.34439116     0.18300
H453        H  0.44440144  0.06894887  0.38393245     0.18300
N454        N  0.44379808  0.03422953  0.31776020    -0.88400
H455        H  0.29373468  0.05773715  0.40188168     0.35600
H456        H  0.31587792  0.09583903  0.41646674     0.40700
H457        H  0.43715048  0.01972026  0.29285824     0.40400
H458        H  0.46062876  0.01626095  0.33431427     0.35300
C459        C  0.40472309  0.01821000  0.16122819    -0.26500
C460        C  0.37598429  0.03175687  0.18525686    -0.14600
C461        C  0.35543427  0.06354310  0.17348821     0.36100
C462        C  0.36351205  0.08082218  0.13799277    -0.25900
C463        C  0.39116811  0.06633950  0.11329581    -0.15200
C464        C  0.41212587  0.03473545  0.12511981     0.37200
N465        N  0.44111780  0.01981268  0.10071828    -0.89400
H466        H  0.42140569  0.99450661  0.17066017     0.18300
H467        H  0.34723141  0.10504536  0.12915989     0.18300
N468        N  0.32552685  0.07765187  0.19694026    -0.88400
H469        H  0.45352715  0.99628408  0.11347229     0.35600
H470        H  0.46197421  0.03973576  0.09840411     0.40700
H471        H  0.30096080  0.07731486  0.18061832     0.40400
H472        H  0.33121556  0.10525414  0.20345561     0.35300
C473        C  0.36177130  0.97468805  0.72397292     0.02100
C474        C  0.36946984  0.01321064  0.72272362     0.02100
C475        C  0.37167673  0.03280160  0.75754018    -0.18400
C476        C  0.36813890  0.01449651  0.79329771     0.02100
C477        C  0.36092687  0.97608878  0.79434588     0.02100
C478        C  0.35748138  0.95667764  0.75974204    -0.18400
H479        H  0.35279836  0.92701189  0.76067565     0.04100
H480        H  0.37826775  0.06207408  0.75693948     0.04100
In481      In  0.40815199  0.11702781  0.50600339     1.36900
C482        C  0.48159379  0.12685573  0.00718651     0.77400
O483        O  0.39483862  0.11890067  0.56957671    -0.61000
O484        O  0.40743490  0.06656472  0.54529898    -0.51900
C485        C  0.35693597  0.17155150  0.50145962     0.70100
O486        O  0.39057539  0.17881961  0.00672269    -0.46800
C487        C  0.39346316  0.08771994  0.93845922     0.74800
O488        O  0.45924400  0.15302114  0.50984748    -0.58700
O489        O  0.37694394  0.07800381  0.96902442    -0.48700
O490        O  0.46617287  0.09582985  0.00370309    -0.55100
C491        C  0.39873715  0.08449615  0.57514075     0.85000
O492        O  0.34932665  0.13753757  0.50090900    -0.57000
O493        O  0.41735633  0.11267186  0.94290943    -0.60300
In494      In  0.38153642  0.86703388  0.00934447     1.36900
C495        C  0.45568046  0.86664128  0.50816769     0.77400
O496        O  0.39038959  0.86823925  0.94540708    -0.61000
O497        O  0.35654503  0.91082544  0.97004446    -0.51900
C498        C  0.33239833  0.81204870  0.00937839     0.70100
O499        O  0.36741816  0.80614412  0.50863935    -0.46800
C500        C  0.37293358  0.89778121  0.57883375     0.74800
O501        O  0.43736064  0.83719952  0.00998874    -0.58700
O502        O  0.36093503  0.91292577  0.54820402    -0.48700
O503        O  0.43581530  0.89585690  0.50612321    -0.55100
C504        C  0.37160346  0.89770600  0.94004107     0.85000
O505        O  0.32330868  0.84591523  0.00877025    -0.57000
O506        O  0.38874725  0.86666507  0.57399665    -0.60300
C507        C  0.73506838  0.02838726  0.71962035     0.02100
C508        C  0.72443859  0.99057812  0.71848472     0.02100
C509        C  0.72066707  0.97074028  0.75332629    -0.18400
C510        C  0.72552712  0.98825570  0.78892107     0.02100
C511        C  0.73460901  0.02616692  0.78989883     0.02100
C512        C  0.74054982  0.04547295  0.75537022    -0.18400
H513        H  0.74792530  0.07453017  0.75638400     0.04100
H514        H  0.71294653  0.94176396  0.75279600     0.04100
In515      In  0.71774349  0.13431256  0.00380140     1.36900
C516        C  0.64404948  0.13324722  0.50744729     0.77400
O517        O  0.70542131  0.13042527  0.94061126    -0.61000
O518        O  0.74364928  0.09123161  0.96511160    -0.51900
C519        C  0.76646960  0.18928734  0.00029307     0.70100
O520        O  0.73112166  0.19533411  0.50160721    -0.46800
C521        C  0.73169322  0.10441271  0.57310019     0.74800
O522        O  0.66163031  0.16389560  0.00456824    -0.58700
O523        O  0.73851091  0.08746917  0.54212274    -0.48700
O524        O  0.66431885  0.10429185  0.50750863    -0.55100
C525        C  0.72652449  0.10255181  0.93538132     0.85000
O526        O  0.77536025  0.15548296  0.99798094    -0.57000
O527        O  0.71838012  0.13676421  0.56861327    -0.60300
In528      In  0.69104937  0.88484684  0.50406312     1.34500
C529        C  0.61753045  0.87658682  0.00709718     0.77400
O530        O  0.70385742  0.88331797  0.56767538    -0.61000
O531        O  0.69552179  0.93590428  0.54104564    -0.51900
C532        C  0.74079933  0.82894125  0.50214634     0.70100
O533        O  0.70706942  0.82294307  0.00806868    -0.46800
C534        C  0.70133050  0.91566143  0.93551397     0.74800
O535        O  0.63932263  0.84977502  0.49977664    -0.58700
O536        O  0.72215191  0.92194507  0.96392183    -0.48700
O537        O  0.63389658  0.90648746  0.01418564    -0.55100
C538        C  0.70260756  0.91803573  0.57167494     0.85000
O539        O  0.74899173  0.86253218  0.49723020    -0.57000
O540        O  0.67554636  0.89320760  0.94240923    -0.60300
C541        C  0.08044276  0.31753491  0.70895508     0.02100
C542        C  0.04116195  0.32338409  0.70711365     0.02100
C543        C  0.02027917  0.32426157  0.74146870    -0.18400
C544        C  0.03778286  0.32152275  0.77761295     0.02100
C545        C  0.07730316  0.31850456  0.77944598     0.02100
C546        C  0.09799722  0.31576346  0.74511223    -0.18400
H547        H  0.12821008  0.31332856  0.74647579     0.04100
H548        H  0.99017707  0.32798680  0.74010208     0.04100
In549      In  0.18507944  0.33735487  0.99408757     1.36900
C550        C  0.18569756  0.41132073  0.48976099     0.77400
O551        O  0.18651080  0.33151914  0.92961473    -0.61000
O552        O  0.13410835  0.32761871  0.95824861    -0.51900
C553        C  0.24088820  0.28765762  0.99417795     0.70100
O554        O  0.24764182  0.32184056  0.48933151    -0.46800
C555        C  0.15923920  0.32703071  0.56365714     0.74800
O556        O  0.21415982  0.39261988  0.98998950    -0.58700
O557        O  0.14484334  0.31304315  0.53401330    -0.48700
O558        O  0.15683944  0.39192781  0.49186746    -0.55100
C559        C  0.15167595  0.32785906  0.92669107     0.85000
O560        O  0.20683840  0.27910654  0.99582534    -0.57000
O561        O  0.18838729  0.34535098  0.55712580    -0.60300
In562      In  0.93176674  0.35349216  0.49300010     1.36900
C563        C  0.92159757  0.42714006  0.99752314     0.77400
O564        O  0.93158421  0.33906158  0.55621353    -0.61000
O565        O  0.98369994  0.35011658  0.52951443    -0.51900
C566        C  0.87700744  0.30476405  0.49494576     0.70100
O567        O  0.87096676  0.33916543  0.99781073    -0.46800
C568        C  0.96128330  0.34135659  0.92342922     0.74800
O569        O  0.89528763  0.40501879  0.49864171    -0.58700
O570        O  0.97431714  0.32670448  0.95380197    -0.48700
O571        O  0.95313710  0.41117054  0.99910179    -0.55100
C572        C  0.96644004  0.34157436  0.56003131     0.85000
O573        O  0.91114051  0.29587325  0.49777476    -0.57000
O574        O  0.93295115  0.36183761  0.92882868    -0.60300
C575        C  0.02074522  0.67841558  0.70917883     0.02100
C576        C  0.06002674  0.67368845  0.70997125     0.02100
C577        C  0.07847098  0.67193001  0.74563026    -0.18400
C578        C  0.05848854  0.67339242  0.78054160     0.02100
C579        C  0.01930671  0.68033744  0.77968810     0.02100
C580        C  0.00098894  0.68261444  0.74388349    -0.18400
H581        H  0.97088138  0.68647032  0.74303553     0.04100
H582        H  0.10858935  0.66833115  0.74625787     0.04100
In583      In  0.16856451  0.64593506  0.49491903     1.36900
C584        C  0.17709569  0.57243940  0.99253636     0.77400
O585        O  0.16189012  0.63407225  0.55826952    -0.61000
O586        O  0.12586820  0.67428601  0.53259030    -0.51900
C587        C  0.22260431  0.69568969  0.50082155     0.70100
O588        O  0.22904590  0.66140186  0.99932111    -0.46800
C589        C  0.13541378  0.65638293  0.92657994     0.74800
O590        O  0.20550203  0.59431343  0.49303382    -0.58700
O591        O  0.11739403  0.65040524  0.95720566    -0.48700
O592        O  0.14591182  0.58880726  0.99593669    -0.55100
C593        C  0.13539039  0.65707967  0.56291270     0.85000
O594        O  0.18825341  0.70406575  0.50119670    -0.57000
O595        O  0.17032086  0.65760221  0.93092314    -0.60300
In596      In  0.91172939  0.66222571  0.99584455     1.36900
C597        C  0.91245457  0.58812937  0.49692344     0.77400
O598        O  0.91209712  0.65349231  0.93195104    -0.61000
O599        O  0.95329905  0.68821602  0.95521520    -0.51900
C600        C  0.85558161  0.71200422  0.99799871     0.70100
O601        O  0.84899243  0.67726034  0.49529783    -0.46800
C602        C  0.94327143  0.66962779  0.56386349     0.74800
O603        O  0.88195362  0.60697536  0.99620929    -0.58700
O604        O  0.95530551  0.68546251  0.53380090    -0.48700
O605        O  0.94123182  0.60786317  0.49536627    -0.55100
C606        C  0.94031917  0.67310672  0.92549869     0.85000
O607        O  0.88962950  0.72047796  0.99761723    -0.57000
O608        O  0.91410862  0.65101810  0.55930647    -0.60300
C609        C  0.96745905  0.65678164  0.82057248    -0.26500
C610        C  0.99645864  0.68214960  0.81563811    -0.14600
C611        C  0.00462039  0.70690791  0.84568045     0.36100
C612        C  0.98546450  0.70386493  0.88103983    -0.25900
C613        C  0.95751933  0.67729588  0.88664786    -0.15200
C614        C  0.94789642  0.65399921  0.85562412     0.37200
N615        N  0.91944834  0.62651994  0.86011458    -0.89400
H616        H  0.96109634  0.63792173  0.79737551     0.18300
H617        H  0.99264807  0.72216302  0.90444491     0.18300
N618        N  0.03262304  0.73467325  0.84029084    -0.88400
H619        H  0.91773176  0.61010168  0.83546773     0.35600
H620        H  0.89377841  0.64062446  0.86231386     0.40700
H621        H  0.03560388  0.75039798  0.86526535     0.40400
H622        H  0.02322463  0.75286252  0.81858316     0.35300
C623        C  0.99928360  0.64270087  0.65239724    -0.26500
C624        C  0.99963550  0.67636186  0.67247725    -0.14600
C625        C  0.98068752  0.70762029  0.65707403     0.36100
C626        C  0.96261950  0.70513817  0.62127674    -0.25900
C627        C  0.96248661  0.67157004  0.60118669    -0.15200
C628        C  0.98074736  0.63995534  0.61684973     0.37200
N629        N  0.98063921  0.60538338  0.59640166    -0.89400
H630        H  0.01365824  0.61861123  0.66447446     0.18300
H631        H  0.94839151  0.72937484  0.60929335     0.18300
N632        N  0.98022881  0.74199016  0.67750536    -0.88400
H633        H  0.99519413  0.58480667  0.61195527     0.35600
H634        H  0.99529093  0.60925144  0.57056966     0.40700
H635        H  0.95234941  0.74951665  0.68268732     0.40400
H636        H  0.99190037  0.76227958  0.65960038     0.35300
C637        C  0.10943231  0.68984077  0.82575394    -0.26500
C638        C  0.07927168  0.66676511  0.81727609    -0.14600
C639        C  0.06931715  0.63867504  0.84423441     0.36100
C640        C  0.08702034  0.63723131  0.88024946    -0.25900
C641        C  0.11695488  0.66043467  0.88869399    -0.15200
C642        C  0.12894908  0.68641698  0.86080752     0.37200
N643        N  0.15983732  0.71023438  0.86871516    -0.89400
H644        H  0.11749193  0.71096402  0.80502650     0.18300
H645        H  0.07842884  0.61651235  0.90121091     0.18300
N646        N  0.04221736  0.61074694  0.83590177    -0.88400
H647        H  0.16347866  0.72932555  0.84613592     0.35600
H648        H  0.18406074  0.69368656  0.86926479     0.40700
H649        H  0.05538404  0.58483658  0.83946142     0.40400
H650        H  0.03425360  0.61175919  0.80696470     0.35300
C651        C  0.08092460  0.69957711  0.64673356    -0.26500
C652        C  0.08192284  0.67020151  0.67362616    -0.14600
C653        C  0.10124133  0.63700811  0.66413379     0.36100
C654        C  0.11879124  0.63382150  0.62821725    -0.25900
C655        C  0.11693213  0.66270800  0.60078638    -0.15200
C656        C  0.09772090  0.69605850  0.61016403     0.37200
N657        N  0.09566498  0.72637675  0.58294808    -0.89400
H658        H  0.06606323  0.72501690  0.65400870     0.18300
H659        H  0.13320240  0.60802905  0.62132524     0.18300
N660        N  0.10215789  0.60547313  0.68962591    -0.88400
H661        H  0.08288766  0.74961323  0.59549126     0.35600
H662        H  0.07797765  0.71842655  0.56059796     0.40700
H663        H  0.07471702  0.59842580  0.69662576     0.40400
H664        H  0.11618614  0.61244680  0.71485831     0.35300
C665        C  0.88194965  0.52586289  0.49751754    -0.26500
C666        C  0.91474442  0.54687347  0.49838518    -0.14600
C667        C  0.94848404  0.52792909  0.00517429     0.36100
C668        C  0.94990555  0.48911124  0.00439869    -0.25900
C669        C  0.91753927  0.46821790  0.99931911    -0.15200
C670        C  0.88354654  0.48675569  0.49777797     0.37200
N671        N  0.84959972  0.46629238  0.49603653    -0.89400
H672        H  0.85490940  0.53977334  0.49614832     0.18300
H673        H  0.97684141  0.47529313  0.00775960     0.18300
N674        N  0.98241603  0.54771566  0.01108866    -0.88400
H675        H  0.83540680  0.47425176  0.47087361     0.35600
H676        H  0.83299904  0.47383629  0.51964019     0.40700
H677        H  0.00121358  0.54047084  0.98917246     0.40400
H678        H  0.99390417  0.53901506  0.03745110     0.35300
C679        C  0.21709247  0.47291157  0.48945261    -0.26500
C680        C  0.18387217  0.45259051  0.48857692    -0.14600
C681        C  0.14746604  0.47202185  0.99260432     0.36100
C682        C  0.14706476  0.51093432  0.99287848    -0.25900
C683        C  0.18024861  0.53124791  0.99215562    -0.15200
C684        C  0.21645282  0.51205841  0.49027766     0.37200
N685        N  0.25090895  0.53200499  0.49149700    -0.89400
H686        H  0.24372343  0.45819588  0.49012142     0.18300
H687        H  0.12035089  0.52550966  0.99333678     0.18300
N688        N  0.11265681  0.45252278  0.99279749    -0.88400
H689        H  0.27381392  0.51368508  0.48983136     0.35600
H690        H  0.25246419  0.54456362  0.51851071     0.40700
H691        H  0.11005545  0.43976009  0.96598140     0.40400
H692        H  0.08996414  0.47101971  0.99508578     0.35300
C693        C  0.99353068  0.30436234  0.65915214    -0.26500
C694        C  0.02133483  0.32944404  0.66977148    -0.14600
C695        C  0.02967266  0.35943823  0.64452498     0.36100
C696        C  0.01264558  0.36148599  0.60823152    -0.25900
C697        C  0.98536016  0.33617245  0.59747928    -0.15200
C698        C  0.97517664  0.30762099  0.62337097     0.37200
N699        N  0.94667228  0.28183177  0.61304021    -0.89400
H700        H  0.98661515  0.28178266  0.67863793     0.18300
H701        H  0.01944673  0.38428743  0.58896256     0.18300
N702        N  0.05318291  0.38957964  0.65544879    -0.88400
H703        H  0.94237799  0.26266896  0.63538755     0.35600
H704        H  0.95645881  0.26670795  0.58935949     0.40700
H705        H  0.06254465  0.38699422  0.68383539     0.40400
H706        H  0.07649251  0.38950819  0.63721910     0.35300
C707        C  0.99434947  0.35681483  0.82020143    -0.26500
C708        C  0.01450541  0.32380043  0.81323760    -0.14600
C709        C  0.01474485  0.29535646  0.84178559     0.36100
C710        C  0.99714206  0.30177658  0.87736223    -0.25900
C711        C  0.97819041  0.33535481  0.88485649    -0.15200
C712        C  0.97626371  0.36296564  0.85570026     0.37200
N713        N  0.95718226  0.39768951  0.86268537    -0.89400
H714        H  0.99419909  0.37859877  0.79842697     0.18300
H715        H  0.99800673  0.28010952  0.89925925     0.18300
N716        N  0.03179518  0.25949874  0.83552519    -0.88400
H717        H  0.95812185  0.41481197  0.83819974     0.35600
H718        H  0.97177599  0.41136092  0.88433789     0.40700
H719        H  0.04210704  0.25680697  0.80748264     0.40400
H720        H  0.05441045  0.25663584  0.85442149     0.35300
C721        C  0.14102629  0.29572737  0.86471786    -0.26500
C722        C  0.13283047  0.32552331  0.88920653    -0.14600
C723        C  0.10741055  0.35354829  0.87708115     0.36100
C724        C  0.09075004  0.35133463  0.84080374    -0.25900
C725        C  0.09755614  0.32075781  0.81678767    -0.15200
C726        C  0.12314195  0.29283023  0.82883286     0.37200
N727        N  0.13013911  0.26101894  0.80524507    -0.89400
H728        H  0.16067260  0.27421811  0.87386875     0.18300
H729        H  0.07202359  0.37353088  0.83143256     0.18300
N730        N  0.09866193  0.38494543  0.90072089    -0.88400
H731        H  0.12314407  0.23732542  0.82121541     0.35600
H732        H  0.15876130  0.25962123  0.79931175     0.40700
H733        H  0.12354108  0.39842530  0.90715619     0.40400
H734        H  0.08680061  0.37543319  0.92648198     0.35300
C735        C  0.13115150  0.34339988  0.66824034    -0.26500
C736        C  0.10401507  0.31604073  0.67354060    -0.14600
C737        C  0.09841757  0.28975441  0.64403263     0.36100
C738        C  0.11723247  0.29382503  0.60883912    -0.25900
C739        C  0.14251833  0.32266859  0.60254872    -0.15200
C740        C  0.15022748  0.34729763  0.63296230     0.37200
N741        N  0.17612714  0.37704640  0.62759206    -0.89400
H742        H  0.13581818  0.36325157  0.69099022     0.18300
H743        H  0.11200860  0.27405656  0.58614695     0.18300
N744        N  0.07489030  0.25806495  0.64899087    -0.88400
H745        H  0.17921043  0.39194258  0.65313160     0.35600
H746        H  0.16446936  0.39557383  0.60740532     0.40700
H747        H  0.06371326  0.25651634  0.67677317     0.40400
H748        H  0.05266239  0.26073765  0.62957868     0.35300
C749        C  0.83554026  0.77781452  0.00540281    -0.26500
C750        C  0.82531893  0.74081370  0.99948576    -0.14600
C751        C  0.78572417  0.73249993  0.49593256     0.36100
C752        C  0.75892395  0.76165078  0.49739989    -0.25900
C753        C  0.76961148  0.79872048  0.50213044    -0.15200
C754        C  0.80874517  0.80658645  0.00743760     0.37200
N755        N  0.82038116  0.84386275  0.01505729    -0.89400
H756        H  0.86475760  0.78442380  0.00903058     0.18300
H757        H  0.72956321  0.75543422  0.49421124     0.18300
N758        N  0.77391064  0.69491587  0.49080333    -0.88400
H759        H  0.84949607  0.84512374  0.01714639     0.35600
H760        H  0.80978248  0.85122596  0.04211924     0.40700
H761        H  0.78325864  0.68634404  0.46365193     0.40400
H762        H  0.74473973  0.69365921  0.49016613     0.35300
C763        C  0.78332031  0.25569503  0.48983392    -0.26500
C764        C  0.79472678  0.21897797  0.99971266    -0.14600
C765        C  0.83329741  0.21047418  0.00348696     0.36100
C766        C  0.85926153  0.23910648  0.00136202    -0.25900
C767        C  0.84734731  0.27657442  0.49734933    -0.15200
C768        C  0.80974563  0.28421314  0.48713597     0.37200
N769        N  0.79857601  0.32049905  0.47347738    -0.89400
H770        H  0.75461655  0.26132899  0.48144730     0.18300
H771        H  0.88872280  0.23228731  0.00438255     0.18300
N772        N  0.84616931  0.17287224  0.00976774    -0.88400
H773        H  0.76982451  0.32161906  0.46812250     0.35600
H774        H  0.81175150  0.32488480  0.44690022     0.40700
H775        H  0.83693577  0.16459568  0.03713177     0.40400
H776        H  0.87536824  0.17135797  0.01050745     0.35300
C777        C  0.73953495  0.94042639  0.67148068    -0.26500
C778        C  0.71711674  0.97121253  0.68141150    -0.14600
C779        C  0.68931736  0.98399599  0.65534493     0.36100
C780        C  0.68585110  0.96689694  0.61920104    -0.25900
C781        C  0.70838486  0.93622100  0.60928029    -0.15200
C782        C  0.73545704  0.92277195  0.63569403     0.37200
N783        N  0.75929193  0.89181439  0.62570063    -0.89400
H784        H  0.76091092  0.93071079  0.69141893     0.18300
H785        H  0.66479723  0.97692501  0.59905281     0.18300
N786        N  0.66474610  0.01423854  0.66570996    -0.88400
H787        H  0.77767707  0.88535990  0.64828950     0.35600
H788        H  0.77577421  0.89998412  0.60225776     0.40700
H789        H  0.64866859  0.00553437  0.68922279     0.40400
H790        H  0.64615678  0.02053666  0.64324939     0.35300
C791        C  0.68339808  0.96105784  0.83791442    -0.26500
C792        C  0.72002659  0.96700075  0.82510023    -0.14600
C793        C  0.75054631  0.95471485  0.84806429     0.36100
C794        C  0.74356889  0.93833198  0.88407980    -0.25900
C795        C  0.70697597  0.93296105  0.89726742    -0.15200
C796        C  0.67649601  0.94398972  0.87379804     0.37200
N797        N  0.63876440  0.93870729  0.88687664    -0.89400
H798        H  0.66016726  0.97060113  0.82020635     0.18300
H799        H  0.76701594  0.92916978  0.90169785     0.18300
N800        N  0.78876652  0.95752377  0.83553354    -0.88400
H801        H  0.61968071  0.94812043  0.86604416     0.35600
H802        H  0.63459485  0.95531823  0.91116277     0.40700
H803        H  0.79089002  0.96957770  0.80814343     0.40400
H804        H  0.80256239  0.97480791  0.85474353     0.35300
C805        C  0.69792304  0.08154679  0.87455909    -0.26500
C806        C  0.72992222  0.08417016  0.89761800    -0.14600
C807        C  0.76423259  0.06900761  0.88446562     0.36100
C808        C  0.76557903  0.05081088  0.84868934    -0.25900
C809        C  0.73324146  0.04718682  0.82638508    -0.15200
C810        C  0.69924059  0.06314607  0.83904848     0.37200
N811        N  0.66611364  0.06010493  0.81593644    -0.89400
H812        H  0.67163827  0.09330158  0.88465181     0.18300
H813        H  0.79179596  0.03935488  0.83817493     0.18300
N814        N  0.79753915  0.07258106  0.90718204    -0.88400
H815        H  0.64323641  0.07265648  0.82970923     0.35600
H816        H  0.67045417  0.07512813  0.79041563     0.40700
H817        H  0.80347073  0.10085686  0.90877924     0.40400
H818        H  0.82034318  0.05988965  0.89339391     0.35300
C819        C  0.76120630  0.03835793  0.65368958    -0.26500
C820        C  0.73839344  0.05110167  0.68392003    -0.14600
C821        C  0.71637166  0.08361518  0.67866826     0.36100
C822        C  0.71657553  0.10178101  0.64274906    -0.25900
C823        C  0.73708477  0.08734213  0.61159560    -0.15200
C824        C  0.76018858  0.05563264  0.61726519     0.37200
N825        N  0.78187635  0.04060995  0.58594914    -0.89400
H826        H  0.77864698  0.01384031  0.65811775     0.18300
H827        H  0.69886421  0.12613284  0.63846436     0.18300
N828        N  0.69246087  0.09697906  0.70913581    -0.88400
H829        H  0.79637475  0.01657474  0.59473569     0.35600
H830        H  0.80202377  0.06015279  0.57851991     0.40700
H831        H  0.67217362  0.07694861  0.71432550     0.40400
H832        H  0.67813671  0.12116345  0.70053065     0.35300
C833        C  0.31605828  0.74569569  0.50015341    -0.26500
C834        C  0.30435158  0.78206595  0.00939606    -0.14600
C835        C  0.26593552  0.78977886  0.01559769     0.36100
C836        C  0.23999561  0.76117643  0.01202223    -0.25900
C837        C  0.25187206  0.72426138  0.50475125    -0.15200
C838        C  0.29013323  0.71681087  0.49732505     0.37200
N839        N  0.30261950  0.68021378  0.48658449    -0.89400
H840        H  0.34518815  0.74013328  0.49343608     0.18300
H841        H  0.21056462  0.76751045  0.01618327     0.18300
N842        N  0.25328710  0.82646966  0.02595234    -0.88400
H843        H  0.33170893  0.67919212  0.48362145     0.35600
H844        H  0.29164173  0.67476622  0.45930825     0.40700
H845        H  0.26419152  0.83214705  0.05324941     0.40400
H846        H  0.22422539  0.82751489  0.02885336     0.35300
C847        C  0.51420155  0.90304484  0.00518163    -0.26500
C848        C  0.49710389  0.86793793  0.50670996    -0.14600
C849        C  0.52009626  0.83576120  0.50785551     0.36100
C850        C  0.55922207  0.83913842  0.50718029    -0.25900
C851        C  0.57615013  0.87407908  0.00632598    -0.15200
C852        C  0.55321319  0.90639434  0.00420991     0.37200
N853        N  0.56944455  0.94255900  0.00054640    -0.89400
H854        H  0.49694877  0.92800887  0.00398632     0.18300
H855        H  0.57654386  0.81422580  0.50862227     0.18300
N856        N  0.50401064  0.79963201  0.50968110    -0.88400
H857        H  0.54873228  0.96333604  0.00022427     0.35600
H858        H  0.58274044  0.94382933  0.97365671     0.40700
H859        H  0.51399377  0.78616127  0.53453538     0.40400
H860        H  0.51340028  0.78463808  0.48574717     0.35300
C861        C  0.26122579  0.22166522  0.00022963    -0.26500
C862        C  0.27124344  0.25893604  0.99517524    -0.14600
C863        C  0.31061328  0.26693945  0.48961993     0.36100
C864        C  0.33772111  0.23818214  0.49240326    -0.25900
C865        C  0.32752900  0.20119464  0.49940866    -0.15200
C866        C  0.28826741  0.19315981  0.00332652     0.37200
N867        N  0.27669144  0.15556209  0.00993361    -0.89400
H868        H  0.23196649  0.21463640  0.00255541     0.18300
H869        H  0.36698544  0.24468053  0.48871938     0.18300
N870        N  0.32197389  0.30444255  0.48225695    -0.88400
H871        H  0.24754819  0.15386299  0.01007939     0.35600
H872        H  0.28556627  0.14776531  0.03762605     0.40700
H873        H  0.31218802  0.31202057  0.45483532     0.40400
H874        H  0.35110735  0.30597836  0.48101782     0.35300
C875        C  0.58090831  0.16335721  0.01918819    -0.26500
C876        C  0.60267395  0.13173812  0.50692021    -0.14600
C877        C  0.58424476  0.10024061  0.49275279     0.36100
C878        C  0.54503082  0.09951384  0.49294042    -0.25900
C879        C  0.52302904  0.13036835  0.00705667    -0.15200
C880        C  0.54168533  0.16264224  0.01932121     0.37200
N881        N  0.52181206  0.19484218  0.03273808    -0.89400
H882        H  0.59478098  0.18809111  0.02897155     0.18300
H883        H  0.53121716  0.07520371  0.48202441     0.18300
N884        N  0.60531005  0.06924837  0.47764679    -0.88400
H885        H  0.50489392  0.18710388  0.05598319     0.35600
H886        H  0.50502179  0.20523960  0.01034717     0.40700
H887        H  0.61906100  0.07840236  0.45273332     0.40400
H888        H  0.58754523  0.04809649  0.46904063     0.35300
C889        C  0.39669632  0.94070099  0.84343616    -0.26500
C890        C  0.36197560  0.95483372  0.83112706    -0.14600
C891        C  0.32982080  0.94888738  0.85414322     0.36100
C892        C  0.33366022  0.93014471  0.88963503    -0.25900
C893        C  0.36845625  0.91602008  0.90190628    -0.15200
C894        C  0.40024527  0.92086700  0.87831712     0.37200
N895        N  0.43627924  0.90708463  0.89060076    -0.89400
H896        H  0.42118846  0.94529939  0.82565331     0.18300
H897        H  0.30916044  0.92615053  0.90756657     0.18300
N898        N  0.29301319  0.96082977  0.84233635    -0.88400
H899        H  0.45706201  0.91528614  0.87118718     0.35600
H900        H  0.43574819  0.87811870  0.88951120     0.40700
H901        H  0.29343327  0.97432757  0.81555261     0.40400
H902        H  0.28313084  0.98007477  0.86245971     0.35300
C903        C  0.38956424  0.92557655  0.68295401    -0.26500
C904        C  0.36099274  0.95215391  0.68834722    -0.14600
C905        C  0.33483472  0.95897046  0.65842719     0.36100
C906        C  0.33946501  0.94087455  0.62308693    -0.25900
C907        C  0.36885850  0.91529067  0.61713190    -0.15200
C908        C  0.39395998  0.90718382  0.64761763     0.37200
N909        N  0.42455712  0.88137187  0.64226468    -0.89400
H910        H  0.40961027  0.92048621  0.70588780     0.18300
H911        H  0.31960671  0.94664637  0.60014616     0.18300
N912        N  0.30299271  0.98338307  0.66302327    -0.88400
H913        H  0.44000189  0.87823364  0.66770488     0.35600
H914        H  0.44258599  0.89287150  0.62176063     0.40700
H915        H  0.30100776  0.99370581  0.69101665     0.40400
H916        H  0.30642684  0.00602731  0.64435939     0.35300
C917        C  0.34465001  0.04300134  0.85384028    -0.26500
C918        C  0.37499842  0.03517775  0.82936408    -0.14600
C919        C  0.41137283  0.04580495  0.84046951     0.36100
C920        C  0.41618094  0.06443512  0.87540201    -0.25900
C921        C  0.38609637  0.07081494  0.90059459    -0.15200
C922        C  0.34986779  0.06015283  0.88968740     0.37200
N923        N  0.31855513  0.06701994  0.91484388    -0.89400
H924        H  0.31681747  0.03544624  0.84498385     0.18300
H925        H  0.44408046  0.07246665  0.88375729     0.18300
N926        N  0.44413778  0.03742012  0.81780341    -0.88400
H927        H  0.29394801  0.05715322  0.90265506     0.35600
H928        H  0.31514150  0.09578815  0.91726269     0.40700
H929        H  0.43784697  0.02230643  0.79319744     0.40400
H930        H  0.46156413  0.02018347  0.83453074     0.35300
C931        C  0.40693163  0.01937459  0.66187914    -0.26500
C932        C  0.37792377  0.03279090  0.68563946    -0.14600
C933        C  0.35714917  0.06432673  0.67358211     0.36100
C934        C  0.36505035  0.08129356  0.63789534    -0.25900
C935        C  0.39287167  0.06682909  0.61339026    -0.15200
C936        C  0.41430222  0.03570190  0.62567056     0.37200
N937        N  0.44373781  0.02108880  0.60163355    -0.89400
H938        H  0.42382675  0.99592366  0.67159547     0.18300
H939        H  0.34850071  0.10523550  0.62876515     0.18300
N940        N  0.32719656  0.07848475  0.69694281    -0.88400
H941        H  0.45652218  0.99793610  0.61474227     0.35600
H942        H  0.46420327  0.04139884  0.59924952     0.40700
H943        H  0.30260647  0.07786017  0.68067922     0.40400
H944        H  0.33274377  0.10618073  0.70317238     0.35300
loop_ 
_geom_bond_atom_site_label_1 
_geom_bond_atom_site_label_2 
_geom_bond_distance 
_geom_bond_site_symmetry_2 
_ccdc_geom_bond_type 
C1            C2   1.420   1_565  A
C1            C6   1.403       .  A
C1          C432   1.483       .  S
C2            C3   1.406       .  A
C2          C460   1.494       .  S
C3            C4   1.405       .  A
C3            H8   1.084       .  S
C4            C5   1.411   1_545  A
C4          C446   1.483       .  S
C5            C6   1.399       .  A
C5          C418   1.481       .  S
C6            H7   1.084       .  S
In9          O11   2.255       .  S
In9          O12   2.262       .  S
In9          O20   2.226       .  S
In9          O16   2.264       .  S
In9         O486   2.268       .  S
In9         O489   2.250   1_554  S
In9         O490   2.234       .  S
In9         O493   2.248   1_554  S
C10         C407   1.488       .  S
C10          O18   1.261       .  A
C10         O488   1.264       .  A
O11          C19   1.258       .  A
O12          C19   1.260       .  A
C13         C393   1.488       .  S
C13          O20   1.259       .  A
C13         O486   1.265       .  A
O14        In481   2.267       .  S
O14         C485   1.265       .  A
C15         C449   1.477       .  S
C15          O17   1.261       .  A
C15          O21   1.260       .  A
O16         C482   1.264       .  A
O17        In481   2.252       .  S
O18        In481   2.231       .  S
C19         C463   1.482       .  S
O21        In481   2.247       .  S
In22         O24   2.238       .  S
In22         O25   2.252       .  S
In22         O33   2.233       .  S
In22         O29   2.254       .  S
In22        O499   2.261       .  S
In22        O502   2.247       .  S
In22        O503   2.217       .  S
In22        O506   2.244       .  S
C23         C376   1.485       .  S
C23          O31   1.262       .  A
C23         O501   1.266       .  A
O24          C32   1.260       .  A
O25          C32   1.262       .  A
C26         C362   1.485       .  S
C26          O33   1.258       .  A
C26         O499   1.262       .  A
O27        In494   2.263       .  S
O27         C498   1.263       .  A
C28         C435   1.479       .  S
C28          O30   1.262       .  A
C28          O34   1.260       .  A
O29         C495   1.266       .  A
O30        In494   2.245       .  S
O31        In494   2.223       .  S
C32         C421   1.476       .  S
O34        In494   2.243       .  S
C35          C36   1.421   1_545  A
C35          C40   1.404       .  A
C35         C348   1.483       .  S
C36          C37   1.406       .  A
C36         C306   1.495       .  S
C37          C38   1.404       .  A
C37          H42   1.084       .  S
C38          C39   1.409   1_565  A
C38         C320   1.479       .  S
C39          C40   1.396       .  A
C39         C337   1.481       .  S
C40          H41   1.084       .  S
In43         O45   2.241       .  S
In43         O46   2.251       .  S
In43         O54   2.216       .  S
In43         O50   2.257       .  S
In43        O520   2.265       .  S
In43        O523   2.236       .  S
In43        O524   2.219       .  S
In43        O527   2.234       .  S
C44         C404   1.482       .  S
C44          O52   1.261       .  A
C44         O522   1.266       .  A
O45          C53   1.261       .  A
O46          C53   1.261       .  A
C47         C292   1.481       .  S
C47          O54   1.257       .  A
C47         O520   1.263       .  A
O48        In515   2.264       .  S
O48         C519   1.263       .  A
C49         C351   1.474       .  S
C49          O51   1.261       .  A
C49          O55   1.261       .  A
O50         C516   1.266       .  A
O51        In515   2.234       .  S
O52        In515   2.220       .  S
C53         C334   1.478       .  S
O55        In515   2.234       .  S
In56         O58   2.252       .  S
In56         O59   2.257       .  S
In56         O67   2.226   1_554  S
In56         O63   2.263       .  S
In56        O533   2.268       .  S
In56        O536   2.251   1_554  S
In56        O537   2.221       .  S
In56        O540   2.249   1_554  S
C57         C379   1.484       .  S
C57          O65   1.260       .  A
C57         O535   1.266       .  A
O58          C66   1.260       .  A
O59          C66   1.261       .  A
C60         C281   1.487       .  S
C60          O67   1.259   1_554  A
C60         O533   1.265       .  A
O61        In528   2.269       .  S
O61         C532   1.265       .  A
C62         C323   1.476       .  S
C62          O64   1.260       .  A
C62          O68   1.257       .  A
O63         C529   1.266       .  A
O64        In528   2.255       .  S
O65        In528   2.219       .  S
C66         C309   1.480       .  S
O68        In528   2.250       .  S
C69          C70   1.418       .  A
C69          C74   1.402       .  A
C69         C264   1.486       .  S
C70          C71   1.403       .  A
C70         C222   1.488       .  S
C71          C72   1.403       .  A
C71          H76   1.084   1_455  S
C72          C73   1.419       .  A
C72         C236   1.490       .  S
C73          C74   1.403       .  A
C73         C253   1.489       .  S
C74          H75   1.084       .  S
In77         O79   2.250       .  S
In77         O80   2.240       .  S
In77         O88   2.228       .  S
In77         O84   2.270       .  S
In77        O554   2.259       .  S
In77        O557   2.236       .  S
In77        O558   2.217       .  S
In77        O561   2.245       .  S
C78         C208   1.486       .  S
C78          O86   1.258       .  A
C78         O556   1.266       .  A
O79          C87   1.260       .  A
O80          C87   1.260       .  A
C81         C390   1.489       .  S
C81          O88   1.262       .  A
C81         O554   1.265       .  A
O82        In549   2.255       .  S
O82         C553   1.265       .  A
C83         C267   1.480       .  S
C83          O85   1.263       .  A
C83          O89   1.261       .  A
O84         C550   1.265       .  A
O85        In549   2.236   1_554  S
O86        In549   2.218       .  S
C87         C250   1.469       .  S
O89        In549   2.238   1_554  S
In90         O92   2.254   1_556  S
In90         O93   2.251   1_556  S
In90        O101   2.217       .  S
In90         O97   2.267       .  S
In90        O567   2.251       .  S
In90        O570   2.258       .  S
In90        O571   2.230       .  S
In90        O574   2.250       .  S
C91         C197   1.486       .  S
C91          O99   1.260       .  A
C91         O569   1.263       .  A
O92         C100   1.259       .  A
O93         C100   1.260       .  A
C94         C295   1.481       .  S
C94         O101   1.262       .  A
C94         O567   1.264       .  A
O95        In562   2.252       .  S
O95         C566   1.264       .  A
C96         C239   1.483       .  S
C96          O98   1.260       .  A
C96         O102   1.258       .  A
O97         C563   1.263       .  A
O98        In562   2.258       .  S
O99        In562   2.232       .  S
C100        C225   1.476       .  S
O102       In562   2.251       .  S
C103        C104   1.413       .  A
C103        C108   1.403       .  A
C103        C152   1.484       .  S
C104        C105   1.401       .  A
C104        C180   1.486       .  S
C105        C106   1.404       .  A
C105        H110   1.084       .  S
C106        C107   1.420       .  A
C106        C166   1.489       .  S
C107        C108   1.406       .  A
C107        C138   1.491   1_455  S
C108        H109   1.084   1_455  S
In111       O113   2.238   1_556  S
In111       O114   2.243   1_556  S
In111       O122   2.232       .  S
In111       O118   2.264       .  S
In111       O588   2.255       .  S
In111       O591   2.245       .  S
In111       O592   2.223       .  S
In111       O595   2.248       .  S
C112        C211   1.487       .  S
C112        O120   1.260       .  A
C112        O590   1.264       .  A
O113        C121   1.260       .  A
O114        C121   1.260       .  A
C115        C365   1.486       .  S
C115        O122   1.261   1_554  A
C115        O588   1.264   1_554  A
O116       In583   2.257       .  S
O116        C587   1.264       .  A
C117        C169   1.476       .  S
C117        O119   1.259       .  A
C117        O123   1.260       .  A
O118        C584   1.264       .  A
O119       In583   2.245       .  S
O120       In583   2.222       .  S
C121        C183   1.479       .  S
O123       In583   2.253       .  S
In124       O126   2.245       .  S
In124       O127   2.261       .  S
In124       O135   2.234       .  S
In124       O131   2.266       .  S
In124       O601   2.275       .  S
In124       O604   2.249       .  S
In124       O605   2.216       .  S
In124       O608   2.243       .  S
C125        C194   1.487   1_556  S
C125        O133   1.258       .  A
C125        O603   1.266       .  A
O126        C134   1.260       .  A
O127        C134   1.262       .  A
C128        C278   1.491       .  S
C128        O135   1.259       .  A
C128        O601   1.263       .  A
O129       In596   2.266       .  S
O129        C600   1.263       .  A
C130        C155   1.465       .  S
C130        O132   1.261       .  A
C130        O136   1.261       .  A
O131        C597   1.267       .  A
O132       In596   2.241   1_554  S
O133       In596   2.216       .  S
C134        C141   1.488       .  S
O136       In596   2.241   1_554  S
C137        C138   1.402       .  A
C137        C142   1.406       .  A
C137        H144   1.084       .  S
C138        C139   1.411   1_655  A
C139        C140   1.408   1_455  A
C139        N146   1.437       .  S
C140        C141   1.406       .  A
C140        H145   1.083       .  S
C141        C142   1.416       .  A
C142        N143   1.438       .  S
N143        H147   1.045       .  S
N143        H148   1.046       .  S
N146        H149   1.045       .  S
N146        H150   1.046       .  S
C151        C152   1.404       .  A
C151        C156   1.404   1_455  A
C151        H158   1.083       .  S
C152        C153   1.407   1_455  A
C153        C154   1.404       .  A
C153        N160   1.431       .  S
C154        C155   1.400       .  A
C154        H159   1.084       .  S
C155        C156   1.408       .  A
C156        N157   1.438       .  S
N157        H161   1.046   1_655  S
N157        H162   1.046   1_655  S
N160        H163   1.045       .  S
N160        H164   1.046       .  S
C165        C166   1.405       .  A
C165        C170   1.405       .  A
C165        H172   1.084       .  S
C166        C167   1.419       .  A
C167        C168   1.401       .  A
C167        N174   1.440       .  S
C168        C169   1.402       .  A
C168        H173   1.084       .  S
C169        C170   1.410       .  A
C170        N171   1.437       .  S
N171        H175   1.046       .  S
N171        H176   1.045       .  S
N174        H177   1.045       .  S
N174        H178   1.043       .  S
C179        C180   1.404       .  A
C179        C184   1.407       .  A
C179        H186   1.084       .  S
C180        C181   1.412       .  A
C181        C182   1.396       .  A
C181        N188   1.433       .  S
C182        C183   1.403       .  A
C182        H187   1.084       .  S
C183        C184   1.414       .  A
C184        N185   1.438       .  S
N185        H189   1.045       .  S
N185        H190   1.045       .  S
N188        H191   1.045       .  S
N188        H192   1.044       .  S
C193        C194   1.406   1_556  A
C193        C198   1.410       .  A
C193        H200   1.084       .  S
C194        C667   1.414       .  A
C195        C196   1.400       .  A
C195        C666   1.414       .  A
C195        N202   1.433       .  S
C196        C197   1.403       .  A
C196        H201   1.084       .  S
C197        C670   1.412       .  A
C198        C669   1.413       .  A
C198        N199   1.432       .  S
N199        H203   1.045       .  S
N199        H204   1.046   1_556  S
N202        H205   1.045   1_655  S
N202        H206   1.046       .  S
C207        C208   1.405       .  A
C207        C212   1.409       .  A
C207        H214   1.083       .  S
C208        C681   1.416       .  A
C209        C210   1.401       .  A
C209        C680   1.416       .  A
C209        N216   1.439       .  S
C210        C211   1.404       .  A
C210        H215   1.083       .  S
C211        C684   1.415       .  A
C212        C683   1.414       .  A
C212        N213   1.437       .  S
N213        H217   1.046       .  S
N213        H218   1.045   1_556  S
N216        H219   1.044       .  S
N216        H220   1.046       .  S
C221        C222   1.405   1_655  A
C221        C226   1.407       .  A
C221        H228   1.084       .  S
C222        C223   1.419       .  A
C223        C224   1.400       .  A
C223        N230   1.438       .  S
C224        C225   1.400   1_455  A
C224        H229   1.084       .  S
C225        C226   1.411       .  A
C226        N227   1.438       .  S
N227        H231   1.046       .  S
N227        H232   1.046       .  S
N230        H233   1.043       .  S
N230        H234   1.045       .  S
C235        C236   1.404   1_655  A
C235        C240   1.407       .  A
C235        H242   1.084       .  S
C236        C237   1.417       .  A
C237        C238   1.402   1_455  A
C237        N244   1.438       .  S
C238        C239   1.404       .  A
C238        H243   1.084       .  S
C239        C240   1.414       .  A
C240        N241   1.438       .  S
N241        H245   1.046       .  S
N241        H246   1.046       .  S
N244        H247   1.043       .  S
N244        H248   1.045       .  S
C249        C250   1.401       .  A
C249        C254   1.406       .  A
C249        H256   1.084       .  S
C250        C251   1.410       .  A
C251        C252   1.395       .  A
C251        N258   1.432       .  S
C252        C253   1.404       .  A
C252        H257   1.083       .  S
C253        C254   1.412       .  A
C254        N255   1.432       .  S
N255        H259   1.047       .  S
N255        H260   1.044       .  S
N258        H261   1.046       .  S
N258        H262   1.045       .  S
C263        C264   1.404       .  A
C263        C268   1.405       .  A
C263        H270   1.084       .  S
C264        C265   1.416       .  A
C265        C266   1.399       .  A
C265        N272   1.438       .  S
C266        C267   1.403       .  A
C266        H271   1.084       .  S
C267        C268   1.414       .  A
C268        N269   1.438       .  S
N269        H273   1.046       .  S
N269        H274   1.046       .  S
N272        H275   1.043       .  S
N272        H276   1.045       .  S
C277        C278   1.405       .  A
C277        C282   1.403       .  A
C277        H284   1.083       .  S
C278        C751   1.416       .  A
C279        C280   1.411       .  A
C279        C750   1.415       .  A
C279        N286   1.437       .  S
C280        C281   1.405   1_556  A
C280        H285   1.083       .  S
C281        C754   1.414       .  A
C282        C753   1.414       .  A
C282        N283   1.439       .  S
N283        H287   1.045       .  S
N283        H288   1.046       .  S
N286        H289   1.045       .  S
N286        H290   1.046       .  S
C291        C296   1.409       .  A
C291        C764   1.405       .  A
C291        H298   1.083       .  S
C292        C293   1.413       .  A
C292        C763   1.405       .  A
C293        C294   1.400       .  A
C293        N300   1.439       .  S
C294        C767   1.403       .  A
C294        H299   1.084       .  S
C295        C296   1.413       .  A
C295        C766   1.402   1_556  A
C296        N297   1.437       .  S
N297        H301   1.046       .  S
N297        H302   1.046       .  S
N300        H303   1.046       .  S
N300        H304   1.046       .  S
C305        C306   1.404       .  A
C305        C310   1.408       .  A
C305        H312   1.084       .  S
C306        C307   1.415       .  A
C307        C308   1.407       .  A
C307        N314   1.437   1_565  S
C308        C309   1.402       .  A
C308        H313   1.084       .  S
C309        C310   1.411       .  A
C310        N311   1.438       .  S
N311        H315   1.046       .  S
N311        H316   1.046       .  S
N314        H317   1.045       .  S
N314        H318   1.046       .  S
C319        C320   1.402       .  A
C319        C324   1.405       .  A
C319        H326   1.084       .  S
C320        C321   1.416       .  A
C321        C322   1.401       .  A
C321        N328   1.439       .  S
C322        C323   1.402       .  A
C322        H327   1.084       .  S
C323        C324   1.412       .  A
C324        N325   1.438       .  S
N325        H329   1.045       .  S
N325        H330   1.046       .  S
N328        H331   1.043       .  S
N328        H332   1.045       .  S
C333        C334   1.403       .  A
C333        C338   1.403       .  A
C333        H340   1.084       .  S
C334        C335   1.413       .  A
C335        C336   1.408       .  A
C335        N342   1.437       .  S
C336        C337   1.401       .  A
C336        H341   1.082       .  S
C337        C338   1.408       .  A
C338        N339   1.438       .  S
N339        H343   1.045       .  S
N339        H344   1.045       .  S
N342        H345   1.046       .  S
N342        H346   1.046       .  S
C347        C348   1.403       .  A
C347        C352   1.402       .  A
C347        H354   1.083       .  S
C348        C349   1.412       .  A
C349        C350   1.401       .  A
C349        N356   1.439       .  S
C350        C351   1.403       .  A
C350        H355   1.084       .  S
C351        C352   1.412       .  A
C352        N353   1.437       .  S
N353        H357   1.046       .  S
N353        H358   1.045       .  S
N356        H359   1.046       .  S
N356        H360   1.045       .  S
C361        C366   1.409   1_554  A
C361        C834   1.405       .  A
C361        H368   1.083   1_554  S
C362        C363   1.414       .  A
C362        C833   1.405       .  A
C363        C364   1.404       .  A
C363        N370   1.439       .  S
C364        C837   1.405       .  A
C364        H369   1.084       .  S
C365        C366   1.414   1_554  A
C365        C836   1.405       .  A
C366        N367   1.437       .  S
N367        H371   1.045       .  S
N367        H372   1.046       .  S
N370        H373   1.045       .  S
N370        H374   1.046       .  S
C375        C380   1.402       .  A
C375        C848   1.404       .  A
C375        H382   1.083       .  S
C376        C377   1.411       .  A
C376        C847   1.404       .  A
C377        C378   1.407       .  A
C377        N384   1.432       .  S
C378        C851   1.405       .  A
C378        H383   1.084       .  S
C379        C380   1.415       .  A
C379        C850   1.405       .  A
C380        N381   1.439       .  S
N381        H385   1.044       .  S
N381        H386   1.047       .  S
N384        H387   1.045       .  S
N384        H388   1.046   1_554  S
C389        C390   1.404       .  A
C389        C394   1.403       .  A
C389        H396   1.083       .  S
C390        C863   1.415       .  A
C391        C392   1.411       .  A
C391        C862   1.415       .  A
C391        N398   1.437       .  S
C392        C393   1.406   1_556  A
C392        H397   1.083       .  S
C393        C866   1.415       .  A
C394        C865   1.415       .  A
C394        N395   1.439       .  S
N395        H399   1.045       .  S
N395        H400   1.046       .  S
N398        H401   1.046       .  S
N398        H402   1.045       .  S
C403        C408   1.403       .  A
C403        C876   1.404       .  A
C403        H410   1.084       .  S
C404        C405   1.413   1_554  A
C404        C875   1.404       .  A
C405        C406   1.404       .  A
C405        N412   1.439       .  S
C406        C879   1.406   1_556  A
C406        H411   1.083       .  S
C407        C408   1.418       .  A
C407        C878   1.405       .  A
C408        N409   1.432       .  S
N409        H413   1.045       .  S
N409        H414   1.045       .  S
N412        H415   1.046       .  S
N412        H416   1.045       .  S
C417        C418   1.401       .  A
C417        C422   1.404       .  A
C417        H424   1.084       .  S
C418        C419   1.416       .  A
C419        C420   1.403       .  A
C419        N426   1.438       .  S
C420        C421   1.403       .  A
C420        H425   1.084       .  S
C421        C422   1.412       .  A
C422        N423   1.438       .  S
N423        H427   1.046       .  S
N423        H428   1.045       .  S
N426        H429   1.044       .  S
N426        H430   1.045       .  S
C431        C432   1.403       .  A
C431        C436   1.404       .  A
C431        H438   1.084       .  S
C432        C433   1.415       .  A
C433        C434   1.400       .  A
C433        N440   1.438       .  S
C434        C435   1.404       .  A
C434        H439   1.084       .  S
C435        C436   1.413       .  A
C436        N437   1.438       .  S
N437        H441   1.046       .  S
N437        H442   1.046       .  S
N440        H443   1.044       .  S
N440        H444   1.045   1_565  S
C445        C446   1.403       .  A
C445        C450   1.406       .  A
C445        H452   1.082       .  S
C446        C447   1.417       .  A
C447        C448   1.402       .  A
C447        N454   1.439       .  S
C448        C449   1.402       .  A
C448        H453   1.084       .  S
C449        C450   1.411       .  A
C450        N451   1.438       .  S
N451        H455   1.046       .  S
N451        H456   1.046       .  S
N454        H457   1.042       .  S
N454        H458   1.046       .  S
C459        C460   1.406       .  A
C459        C464   1.407       .  A
C459        H466   1.083   1_545  S
C460        C461   1.409       .  A
C461        C462   1.405       .  A
C461        N468   1.432       .  S
C462        C463   1.404       .  A
C462        H467   1.084       .  S
C463        C464   1.412       .  A
C464        N465   1.438       .  S
N465        H469   1.046   1_545  S
N465        H470   1.046       .  S
N468        H471   1.046       .  S
N468        H472   1.045       .  S
C473        C474   1.419   1_565  A
C473        C478   1.403       .  A
C473        C904   1.484       .  S
C474        C475   1.406       .  A
C474        C932   1.493       .  S
C475        C476   1.405       .  A
C475        H480   1.084       .  S
C476        C477   1.411   1_545  A
C476        C918   1.483       .  S
C477        C478   1.400       .  A
C477        C890   1.481       .  S
C478        H479   1.084       .  S
In481       O483   2.254       .  S
In481       O484   2.262       .  S
In481       O492   2.226       .  S
In481       O488   2.262       .  S
C482        C879   1.490       .  S
C482        O490   1.261       .  A
O483        C491   1.258       .  A
O484        C491   1.260       .  A
C485        C865   1.489       .  S
C485        O492   1.260       .  A
C487        C921   1.477       .  S
C487        O489   1.261       .  A
C487        O493   1.261       .  A
C491        C935   1.481       .  S
In494       O496   2.237   1_554  S
In494       O497   2.251   1_554  S
In494       O505   2.229       .  S
In494       O501   2.253       .  S
C495        C848   1.484       .  S
C495        O503   1.262       .  A
O496        C504   1.260       .  A
O497        C504   1.262       .  A
C498        C834   1.485       .  S
C498        O505   1.258       .  A
C500        C907   1.480       .  S
C500        O502   1.262       .  A
C500        O506   1.260       .  A
C504        C893   1.475       .  S
C507        C508   1.421   1_545  A
C507        C512   1.403       .  A
C507        C820   1.483       .  S
C508        C509   1.405       .  A
C508        C778   1.493       .  S
C509        C510   1.403       .  A
C509        H514   1.084       .  S
C510        C511   1.409   1_565  A
C510        C792   1.478       .  S
C511        C512   1.396       .  A
C511        C809   1.480       .  S
C512        H513   1.084       .  S
In515       O517   2.240   1_554  S
In515       O518   2.248   1_554  S
In515       O526   2.217   1_554  S
In515       O522   2.258       .  S
C516        C876   1.482       .  S
C516        O524   1.261       .  A
O517        C525   1.261       .  A
O518        C525   1.261       .  A
C519        C764   1.483   1_554  S
C519        O526   1.257   1_554  A
C521        C823   1.476       .  S
C521        O523   1.261       .  A
C521        O527   1.261       .  A
C525        C806   1.476       .  S
In528       O530   2.252       .  S
In528       O531   2.259       .  S
In528       O539   2.225       .  S
In528       O535   2.262       .  S
C529        C851   1.485       .  S
C529        O537   1.260       .  A
O530        C538   1.260       .  A
O531        C538   1.261       .  A
C532        C753   1.488       .  S
C532        O539   1.259       .  A
C534        C795   1.474       .  S
C534        O536   1.260       .  A
C534        O540   1.257       .  A
C538        C781   1.480       .  S
C541        C542   1.419       .  A
C541        C546   1.403       .  A
C541        C736   1.488       .  S
C542        C543   1.404       .  A
C542        C694   1.490       .  S
C543        C544   1.403       .  A
C543        H548   1.084   1_455  S
C544        C545   1.418       .  A
C544        C708   1.490       .  S
C545        C546   1.403       .  A
C545        C725   1.488       .  S
C546        H547   1.084       .  S
In549       O551   2.246       .  S
In549       O552   2.242       .  S
In549       O560   2.227       .  S
In549       O556   2.264       .  S
C550        C680   1.487       .  S
C550        O558   1.257       .  A
O551        C559   1.260       .  A
O552        C559   1.260       .  A
C553        C862   1.489       .  S
C553        O560   1.262       .  A
C555        C739   1.481       .  S
C555        O557   1.262       .  A
C555        O561   1.262       .  A
C559        C722   1.468       .  S
In562       O564   2.247       .  S
In562       O565   2.251       .  S
In562       O573   2.218       .  S
In562       O569   2.262       .  S
C563        C669   1.486       .  S
C563        O571   1.260       .  A
O564        C572   1.259       .  A
O565        C572   1.262       .  A
C566        C767   1.482       .  S
C566        O573   1.261       .  A
C568        C711   1.482       .  S
C568        O570   1.260       .  A
C568        O574   1.259       .  A
C572        C697   1.475       .  S
C575        C576   1.413       .  A
C575        C580   1.402       .  A
C575        C624   1.483   1_455  S
C576        C577   1.402       .  A
C576        C652   1.487       .  S
C577        C578   1.405       .  A
C577        H582   1.084       .  S
C578        C579   1.420       .  A
C578        C638   1.491       .  S
C579        C580   1.405       .  A
C579        C610   1.490   1_455  S
C580        H581   1.084   1_455  S
In583       O585   2.246       .  S
In583       O586   2.247       .  S
In583       O594   2.232       .  S
In583       O590   2.266       .  S
C584        C683   1.487       .  S
C584        O592   1.260       .  A
O585        C593   1.261       .  A
O586        C593   1.260       .  A
C587        C837   1.487       .  S
C587        O594   1.261       .  A
C589        C641   1.476       .  S
C589        O591   1.259       .  A
C589        O595   1.260       .  A
C593        C655   1.482       .  S
In596       O598   2.239       .  S
In596       O599   2.254       .  S
In596       O607   2.232       .  S
In596       O603   2.272       .  S
C597        C666   1.488       .  S
C597        O605   1.261       .  A
O598        C606   1.260       .  A
O599        C606   1.262       .  A
C600        C750   1.489       .  S
C600        O607   1.260       .  A
C602        C627   1.469       .  S
C602        O604   1.261       .  A
C602        O608   1.260       .  A
C606        C613   1.486       .  S
C609        C610   1.402       .  A
C609        C614   1.404       .  A
C609        H616   1.084       .  S
C610        C611   1.411   1_655  A
C611        C612   1.407   1_455  A
C611        N618   1.437       .  S
C612        C613   1.407       .  A
C612        H617   1.083       .  S
C613        C614   1.416       .  A
C614        N615   1.438       .  S
N615        H619   1.045       .  S
N615        H620   1.046       .  S
N618        H621   1.045       .  S
N618        H622   1.046       .  S
C623        C624   1.404       .  A
C623        C628   1.405       .  A
C623        H630   1.083   1_655  S
C624        C625   1.407       .  A
C625        C626   1.404       .  A
C625        N632   1.431       .  S
C626        C627   1.401       .  A
C626        H631   1.084       .  S
C627        C628   1.409       .  A
C628        N629   1.438       .  S
N629        H633   1.046       .  S
N629        H634   1.046       .  S
N632        H635   1.045       .  S
N632        H636   1.046       .  S
C637        C638   1.405       .  A
C637        C642   1.406       .  A
C637        H644   1.084       .  S
C638        C639   1.420       .  A
C639        C640   1.401       .  A
C639        N646   1.439       .  S
C640        C641   1.401       .  A
C640        H645   1.084       .  S
C641        C642   1.410       .  A
C642        N643   1.438       .  S
N643        H647   1.046       .  S
N643        H648   1.044       .  S
N646        H649   1.045       .  S
N646        H650   1.043       .  S
C651        C652   1.404       .  A
C651        C656   1.407       .  A
C651        H658   1.084       .  S
C652        C653   1.413       .  A
C653        C654   1.398       .  A
C653        N660   1.433       .  S
C654        C655   1.404       .  A
C654        H659   1.084       .  S
C655        C656   1.415       .  A
C656        N657   1.438       .  S
N657        H661   1.045       .  S
N657        H662   1.046       .  S
N660        H663   1.045       .  S
N660        H664   1.043       .  S
C665        C666   1.406       .  A
C665        C670   1.409       .  A
C665        H672   1.084       .  S
C667        C668   1.399       .  A
C667        N674   1.433       .  S
C668        C669   1.403   1_554  A
C668        H673   1.084       .  S
C670        N671   1.432       .  S
N671        H675   1.046       .  S
N671        H676   1.045       .  S
N674        H677   1.045   1_654  S
N674        H678   1.046       .  S
C679        C680   1.406       .  A
C679        C684   1.411       .  A
C679        H686   1.083       .  S
C681        C682   1.402       .  A
C681        N688   1.439       .  S
C682        C683   1.404       .  A
C682        H687   1.083       .  S
C684        N685   1.437       .  S
N685        H689   1.046       .  S
N685        H690   1.045       .  S
N688        H691   1.045       .  S
N688        H692   1.046       .  S
C693        C694   1.406   1_655  A
C693        C698   1.407       .  A
C693        H700   1.084       .  S
C694        C695   1.419       .  A
C695        C696   1.399       .  A
C695        N702   1.437       .  S
C696        C697   1.399   1_455  A
C696        H701   1.084       .  S
C697        C698   1.410       .  A
C698        N699   1.438       .  S
N699        H703   1.046       .  S
N699        H704   1.046       .  S
N702        H705   1.043       .  S
N702        H706   1.045       .  S
C707        C708   1.404   1_655  A
C707        C712   1.406       .  A
C707        H714   1.084       .  S
C708        C709   1.418       .  A
C709        C710   1.403   1_455  A
C709        N716   1.438       .  S
C710        C711   1.403       .  A
C710        H715   1.084       .  S
C711        C712   1.413       .  A
C712        N713   1.438       .  S
N713        H717   1.045       .  S
N713        H718   1.046       .  S
N716        H719   1.043       .  S
N716        H720   1.045       .  S
C721        C722   1.401       .  A
C721        C726   1.405       .  A
C721        H728   1.084       .  S
C722        C723   1.410       .  A
C723        C724   1.396       .  A
C723        N730   1.433       .  S
C724        C725   1.404       .  A
C724        H729   1.083       .  S
C725        C726   1.411       .  A
C726        N727   1.432       .  S
N727        H731   1.046       .  S
N727        H732   1.045       .  S
N730        H733   1.046       .  S
N730        H734   1.045       .  S
C735        C736   1.405       .  A
C735        C740   1.406       .  A
C735        H742   1.084       .  S
C736        C737   1.416       .  A
C737        C738   1.399       .  A
C737        N744   1.438       .  S
C738        C739   1.403       .  A
C738        H743   1.084       .  S
C739        C740   1.414       .  A
C740        N741   1.438       .  S
N741        H745   1.046       .  S
N741        H746   1.046       .  S
N744        H747   1.043       .  S
N744        H748   1.045       .  S
C749        C750   1.404   1_554  A
C749        C754   1.403       .  A
C749        H756   1.083       .  S
C751        C752   1.412       .  A
C751        N758   1.437       .  S
C752        C753   1.406       .  A
C752        H757   1.083       .  S
C754        N755   1.439       .  S
N755        H759   1.046       .  S
N755        H760   1.046       .  S
N758        H761   1.045       .  S
N758        H762   1.046       .  S
C763        C768   1.409       .  A
C763        H770   1.083       .  S
C764        C765   1.415   1_556  A
C765        C766   1.400       .  A
C765        N772   1.439       .  S
C766        H771   1.084       .  S
C767        C768   1.414       .  A
C768        N769   1.437       .  S
N769        H773   1.046       .  S
N769        H774   1.046       .  S
N772        H775   1.046       .  S
N772        H776   1.046       .  S
C777        C778   1.403       .  A
C777        C782   1.407       .  A
C777        H784   1.084       .  S
C778        C779   1.414       .  A
C779        C780   1.407       .  A
C779        N786   1.437   1_565  S
C780        C781   1.403       .  A
C780        H785   1.084       .  S
C781        C782   1.411       .  A
C782        N783   1.438       .  S
N783        H787   1.046       .  S
N783        H788   1.046       .  S
N786        H789   1.045       .  S
N786        H790   1.046       .  S
C791        C792   1.402       .  A
C791        C796   1.405       .  A
C791        H798   1.084       .  S
C792        C793   1.415       .  A
C793        C794   1.399       .  A
C793        N800   1.439       .  S
C794        C795   1.401       .  A
C794        H799   1.084       .  S
C795        C796   1.412       .  A
C796        N797   1.438       .  S
N797        H801   1.045       .  S
N797        H802   1.046       .  S
N800        H803   1.043       .  S
N800        H804   1.045       .  S
C805        C806   1.402       .  A
C805        C810   1.403       .  A
C805        H812   1.084       .  S
C806        C807   1.412       .  A
C807        C808   1.408       .  A
C807        N814   1.437       .  S
C808        C809   1.401       .  A
C808        H813   1.083       .  S
C809        C810   1.408       .  A
C810        N811   1.438       .  S
N811        H815   1.045       .  S
N811        H816   1.045       .  S
N814        H817   1.046       .  S
N814        H818   1.046       .  S
C819        C820   1.403       .  A
C819        C824   1.403       .  A
C819        H826   1.083       .  S
C820        C821   1.412       .  A
C821        C822   1.401       .  A
C821        N828   1.439       .  S
C822        C823   1.403       .  A
C822        H827   1.084       .  S
C823        C824   1.412       .  A
C824        N825   1.437       .  S
N825        H829   1.046       .  S
N825        H830   1.045       .  S
N828        H831   1.045       .  S
N828        H832   1.045       .  S
C833        C838   1.409       .  A
C833        H840   1.083       .  S
C834        C835   1.414       .  A
C835        C836   1.404       .  A
C835        N842   1.439       .  S
C836        H841   1.084       .  S
C837        C838   1.414       .  A
C838        N839   1.437       .  S
N839        H843   1.046       .  S
N839        H844   1.046       .  S
N842        H845   1.047       .  S
N842        H846   1.044       .  S
C847        C852   1.403       .  A
C847        H854   1.083       .  S
C848        C849   1.411       .  A
C849        C850   1.407       .  A
C849        N856   1.432       .  S
C850        H855   1.084       .  S
C851        C852   1.415       .  A
C852        N853   1.439       .  S
N853        H857   1.045       .  S
N853        H858   1.046   1_554  S
N856        H859   1.046       .  S
N856        H860   1.046       .  S
C861        C862   1.404   1_554  A
C861        C866   1.403       .  A
C861        H868   1.083       .  S
C863        C864   1.411       .  A
C863        N870   1.437       .  S
C864        C865   1.406       .  A
C864        H869   1.083       .  S
C866        N867   1.439       .  S
N867        H871   1.045       .  S
N867        H872   1.046       .  S
N870        H873   1.046       .  S
N870        H874   1.045       .  S
C875        C880   1.404       .  A
C875        H882   1.084       .  S
C876        C877   1.413       .  A
C877        C878   1.404       .  A
C877        N884   1.439       .  S
C878        H883   1.084       .  S
C879        C880   1.418       .  A
C880        N881   1.432       .  S
N881        H885   1.045       .  S
N881        H886   1.045       .  S
N884        H887   1.046       .  S
N884        H888   1.045       .  S
C889        C890   1.401       .  A
C889        C894   1.404       .  A
C889        H896   1.084       .  S
C890        C891   1.416       .  A
C891        C892   1.404       .  A
C891        N898   1.438       .  S
C892        C893   1.403       .  A
C892        H897   1.084       .  S
C893        C894   1.411       .  A
C894        N895   1.438       .  S
N895        H899   1.046       .  S
N895        H900   1.045       .  S
N898        H901   1.044       .  S
N898        H902   1.045       .  S
C903        C904   1.403       .  A
C903        C908   1.405       .  A
C903        H910   1.084       .  S
C904        C905   1.415       .  A
C905        C906   1.401       .  A
C905        N912   1.438       .  S
C906        C907   1.404       .  A
C906        H911   1.084       .  S
C907        C908   1.413       .  A
C908        N909   1.438       .  S
N909        H913   1.046       .  S
N909        H914   1.046       .  S
N912        H915   1.044       .  S
N912        H916   1.045   1_565  S
C917        C918   1.403       .  A
C917        C922   1.406       .  A
C917        H924   1.082       .  S
C918        C919   1.417       .  A
C919        C920   1.401       .  A
C919        N926   1.439       .  S
C920        C921   1.402       .  A
C920        H925   1.084       .  S
C921        C922   1.411       .  A
C922        N923   1.438       .  S
N923        H927   1.046       .  S
N923        H928   1.046       .  S
N926        H929   1.042       .  S
N926        H930   1.046       .  S
C931        C932   1.406       .  A
C931        C936   1.407       .  A
C931        H938   1.083   1_545  S
C932        C933   1.409       .  A
C933        C934   1.405       .  A
C933        N940   1.432       .  S
C934        C935   1.404       .  A
C934        H939   1.084       .  S
C935        C936   1.412       .  A
C936        N937   1.438       .  S
N937        H941   1.046   1_545  S
N937        H942   1.046       .  S
N940        H943   1.046       .  S
N940        H944   1.045       .  S
