geometry optimzed in LAMMPS
_audit_creation_date              2020-11-30 
_audit_creation_method            'lammps2cif' 
_symmetry_space_group_name_H-M    'P1' 
_symmetry_Int_Tables_number       1 
_symmetry_cell_setting            triclinic 
loop_ 
_symmetry_equiv_pos_as_xyz 
  x,y,z 
_cell_length_a                    42.09160572 
_cell_length_b                    42.03777406772647 
_cell_length_c                    45.946784521505705 
_cell_angle_alpha                 89.9381700982593 
_cell_angle_beta                  90.04676175838095 
_cell_angle_gamma                 120.15298720122007 
loop_ 
_atom_site_label 
_atom_site_type_symbol 
_atom_site_fract_x 
_atom_site_fract_y 
_atom_site_fract_z 
_atom_site_charge 
C1          C  0.46541642  0.07434969  0.31686215     0.41600
N2          N  0.49441239  0.06370550  0.28310640     0.00500
C3          C  0.42296537  0.90812349  0.19643641    -0.07400
H4          H  0.42509319  0.88414092  0.31211781     0.06000
C5          C  0.56833730  0.96282660  0.30348231    -0.07800
Co6        Co  0.44368372  0.99420873  0.25179455     0.74200
N7          N  0.43913914  0.93045776  0.28367176    -0.26900
Co8        Co  0.47613627  0.93281115  0.25135951     0.74100
C9          C  0.54389469  0.92781900  0.31726145     0.41700
N10         N  0.58109256  0.04654800  0.28291935     0.00100
N11         N  0.51446164  0.93751149  0.28328262     0.00200
N12         N  0.40264342  0.94858154  0.19993433    -0.47800
H13         H  0.41173130  0.02049485  0.30720219     0.05900
N14         N  0.42790639  0.95466811  0.28311685     0.00500
N15         N  0.51451168  0.93824935  0.21917218     0.00200
C16         C  0.54406045  0.93040205  0.18435585     0.41800
N17         N  0.56976255  0.07068164  0.28346850    -0.26400
C18         C  0.43940587  0.03633728  0.19948156    -0.07300
N19         N  0.49830193  0.08824731  0.30307394    -0.47500
N20         N  0.51077465  0.91542273  0.19771030    -0.47700
C21         C  0.46387189  0.06997985  0.18417807     0.41600
N22         N  0.42672593  0.95389140  0.22051048     0.00500
N23         N  0.56930500  0.07015255  0.21907112    -0.26400
N24         N  0.46086450  0.03497300  0.28292646    -0.26900
N25         N  0.58157136  0.04680704  0.22031242     0.00100
H26         H  0.58116120  0.11480938  0.18937118     0.06000
H27         H  0.59745229  0.98349328  0.19574923     0.06000
N28         N  0.43898296  0.93052915  0.21939096    -0.27000
N29         N  0.54792065  0.96636235  0.28288492    -0.26600
N30         N  0.49374364  0.06245799  0.21900373     0.00500
C31         C  0.39875151  0.92052010  0.31918798     0.41900
C32         C  0.58667183  0.09360624  0.30605098    -0.07800
N33         N  0.54812264  0.96680646  0.22030086    -0.26600
H34         H  0.59727213  0.98163981  0.30708656     0.06000
N35         N  0.40392315  0.94959532  0.30356091    -0.47800
H36         H  0.58354756  0.11674512  0.31208153     0.06000
C37         C  0.60941792  0.08013027  0.18348353     0.41700
C38         C  0.44067735  0.03908371  0.30343624    -0.07300
Co39       Co  0.53244186  0.06810721  0.25112510     0.73800
N40         N  0.60505171  0.05159082  0.30345274    -0.47500
C41         C  0.39876360  0.92035008  0.18371837     0.42000
N42         N  0.49728532  0.08506950  0.19738968    -0.47500
Co43       Co  0.56488466  0.00677318  0.25165952     0.73900
C44         C  0.56864250  0.96422208  0.19940060    -0.07800
C45         C  0.42216434  0.90743593  0.30617175    -0.07400
N46         N  0.46012961  0.03393524  0.22033213    -0.26900
N47         N  0.51087589  0.91335111  0.30355176    -0.47700
H48         H  0.42710402  0.88575839  0.18990493     0.06000
C49         C  0.58522911  0.09241889  0.19601368    -0.07800
Cl50       Cl  0.50428376  0.00047969  0.25151034    -0.57100
C51         C  0.61014443  0.08056598  0.31918269     0.41700
H52         H  0.41056530  0.01702728  0.19600644     0.05900
N53         N  0.60564221  0.05202994  0.19981330    -0.47500
C54         C  0.07471660  0.61114728  0.31939905     0.41600
N55         N  0.06682387  0.57338094  0.28484730     0.00500
C56         C  0.91189182  0.49135669  0.19762828    -0.07400
H57         H  0.88920566  0.46553328  0.31360335     0.06000
C58         C  0.96601115  0.39919008  0.30380390    -0.07800
Co59       Co  0.99893248  0.55620480  0.25196963     0.74200
N60         N  0.93478078  0.49768232  0.28451566    -0.26900
Co61       Co  0.93671052  0.46251602  0.25250882     0.74100
C62         C  0.93213934  0.38997268  0.31859805     0.41700
N63         N  0.04952034  0.46907855  0.28371456     0.00100
N64         N  0.94137323  0.42888448  0.28456208     0.00200
N65         N  0.95379333  0.55207216  0.20040143    -0.47800
H66         H  0.02251107  0.61236754  0.30730341     0.05900
N67         N  0.95881349  0.53324538  0.28342739     0.00500
N68         N  0.94109224  0.42887027  0.22060695     0.00200
C69         C  0.93047631  0.38961271  0.18661080     0.41800
N70         N  0.07366457  0.50461166  0.28487732    -0.26400
C71         C  0.04391995  0.60357075  0.20016032    -0.07300
N72         N  0.08940219  0.59231439  0.30652804    -0.47500
N73         N  0.91681196  0.40877109  0.20031814    -0.47700
C74         C  0.07899420  0.61375644  0.18671320     0.41600
N75         N  0.95900343  0.53301704  0.22075164     0.00500
N76         N  0.07404804  0.50518200  0.22040351    -0.26400
N77         N  0.03874031  0.57902104  0.28328555    -0.26900
N78         N  0.04994774  0.46958193  0.22108350     0.00100
H79         H  0.11983076  0.53769169  0.19154354     0.06000
H80         H  0.98359236  0.38877663  0.19661451     0.06000
N81         N  0.93480425  0.49745786  0.22016166    -0.27000
N82         N  0.96947550  0.42324313  0.28336532    -0.26600
N83         N  0.06806309  0.57414013  0.22070337     0.00500
C84         C  0.92527160  0.52859713  0.32002209     0.41900
C85         C  0.09617311  0.51011887  0.30765490    -0.07800
N86         N  0.96942705  0.42355908  0.22094109    -0.26600
H87         H  0.98466546  0.38891375  0.30725145     0.06000
N88         N  0.95396998  0.55242885  0.30386755    -0.47800
H89         H  0.11926709  0.53630403  0.31409781     0.06000
C90         C  0.08401692  0.47472945  0.18492189     0.41700
C91         C  0.04144464  0.60242379  0.30394920    -0.07300
Co92       Co  0.07201319  0.54007574  0.25276806     0.73800
N93         N  0.05416625  0.44962852  0.30405440    -0.47500
C94         C  0.92474148  0.52796267  0.18479219     0.42000
N95         N  0.09261377  0.59460051  0.20062119    -0.47500
Co96       Co  0.00972750  0.44632584  0.25221382     0.73900
C97         C  0.96527824  0.39939299  0.20032010    -0.07800
C98         C  0.91216952  0.49185655  0.30724382    -0.07400
N99         N  0.03960000  0.57926691  0.22079642    -0.26900
N100        N  0.91802002  0.40928107  0.30563305    -0.47700
H101        H  0.88866983  0.46504134  0.19160525     0.06000
C102        C  0.09678737  0.51132863  0.19773004    -0.07800
Cl103      Cl  0.00435697  0.50128785  0.25234101    -0.50800
C104        C  0.08285679  0.47320054  0.32027251     0.41700
H105        H  0.02560331  0.61417113  0.19634274     0.05900
N106        N  0.05513313  0.45057355  0.20069173    -0.47500
C107        C  0.39506905  0.46156341  0.32027762     0.41600
N108        N  0.43320545  0.49124556  0.28556540     0.00500
C109        C  0.51485981  0.41691696  0.19920855    -0.07400
H110        H  0.54199226  0.42225959  0.31364212     0.06000
C111        C  0.60751452  0.56534078  0.30430034    -0.07800
Co112      Co  0.45061409  0.44061700  0.25272453     0.74200
N113        N  0.50937504  0.43540041  0.28496612    -0.26900
Co114      Co  0.54439614  0.47233036  0.25303201     0.74100
C115        C  0.61719329  0.54094751  0.31898573     0.41700
N116        N  0.53772459  0.57862767  0.28433613     0.00100
N117        N  0.57822823  0.51087319  0.28502284     0.00200
N118        N  0.45457733  0.39929283  0.20135790    -0.47800
H119        H  0.39407469  0.40794342  0.30862315     0.05900
N120        N  0.47375515  0.42341649  0.28396050     0.00500
N121        N  0.57789965  0.51046726  0.22096148     0.00200
C122        C  0.61655090  0.53954218  0.18662152     0.41800
N123        N  0.50214153  0.56667835  0.28551263    -0.26400
C124        C  0.40488686  0.43910627  0.19988135    -0.07300
N125        N  0.41401568  0.49496473  0.30697127    -0.47500
N126        N  0.59776573  0.50651401  0.20036411    -0.47700
C127        C  0.39613090  0.46470963  0.18573773     0.41600
N128        N  0.47378593  0.42400879  0.22140451     0.00500
N129        N  0.50189181  0.56730654  0.22125082    -0.26400
N130        N  0.42761461  0.45746612  0.28430805    -0.26900
N131        N  0.53730263  0.57838341  0.22158505     0.00100
H132        H  0.46966465  0.58165230  0.19320310     0.06000
H133        H  0.61723441  0.59333527  0.19702818     0.06000
N134        N  0.50918110  0.43492791  0.22102621    -0.27000
N135        N  0.58355482  0.54455649  0.28390619    -0.26600
N136        N  0.43346888  0.49227372  0.22121295     0.00500
C137        C  0.47908758  0.39439679  0.31996511     0.41900
C138        C  0.49613061  0.58305135  0.30832806    -0.07800
N139        N  0.58311653  0.54413231  0.22146379    -0.26600
H140        H  0.61755643  0.59430619  0.30762315     0.06000
N141        N  0.45478721  0.39881877  0.30418733    -0.47800
H142        H  0.46979084  0.57942804  0.31472578     0.06000
C143        C  0.53235964  0.60793509  0.18564028     0.41700
C144        C  0.40409664  0.43688714  0.30513040    -0.07300
Co145      Co  0.46693789  0.52994568  0.25346380     0.73800
N146        N  0.55686728  0.60284818  0.30475123    -0.47500
C147        C  0.47825462  0.39328587  0.18623423     0.42000
N148        N  0.41471212  0.49719511  0.20017226    -0.47500
Co149      Co  0.56049057  0.56160343  0.25278612     0.73900
C150        C  0.60687441  0.56436159  0.20068480    -0.07800
C151        C  0.51560968  0.41873637  0.30747590    -0.07400
N152        N  0.42794615  0.45848947  0.22138789    -0.26900
N153        N  0.59812725  0.50740944  0.30597314    -0.47700
H154        H  0.54093705  0.41925197  0.19376035     0.06000
C155        C  0.49590617  0.58453962  0.19894139    -0.07800
Cl156      Cl  0.50560314  0.50110066  0.25302376    -0.50800
C157        C  0.53275487  0.60710571  0.32089753     0.41700
H158        H  0.39475553  0.41033282  0.19547338     0.05900
N159        N  0.55626283  0.60251449  0.20107072    -0.47500
C160        C  0.81414120  0.47358138  0.99898010     0.41600
N161        N  0.78975793  0.50491497  0.01271040     0.00500
C162        C  0.75434217  0.61501739  0.42293313    -0.07400
H163        H  0.89087701  0.63794263  0.41761391     0.06000
C164        C  0.90334431  0.67406514  0.03074134    -0.07800
Co165      Co  0.77156313  0.53747099  0.46321890     0.74200
N166        N  0.84097962  0.60182190  0.44157172    -0.26900
Co167      Co  0.82192133  0.63220239  0.46600763     0.74100
C168        C  0.92725400  0.68847700  0.50521921     0.41700
N169        N  0.83719100  0.59292141  0.06413287     0.00100
N170        N  0.87054099  0.65772018  0.49136020     0.00200
N171        N  0.72469980  0.55313150  0.42558765    -0.47800
H172        H  0.80838540  0.48421238  0.45059766     0.05900
N173        N  0.82045894  0.56563704  0.44182950     0.00500
N174        N  0.80079340  0.65929924  0.49164411     0.00200
C175        C  0.77347506  0.68871189  0.00534013     0.41800
N176        N  0.81702638  0.55710450  0.06026455    -0.26400
C177        C  0.68781296  0.49089559  0.47496350    -0.07300
N178        N  0.80341585  0.48474102  0.02259179    -0.47500
N179        N  0.78520116  0.67799042  0.48182962    -0.47700
C180        C  0.66511800  0.47681984  0.00104885     0.41600
N181        N  0.75373271  0.56819578  0.44247933     0.00500
N182        N  0.75032729  0.55921578  0.06111678    -0.26400
N183        N  0.79031926  0.50704941  0.48422448    -0.26900
N184        N  0.76814464  0.59508397  0.06509888     0.00100
H185        H  0.70222465  0.51398904  0.07942361     0.06000
H186        H  0.77775054  0.67642075  0.05368286     0.06000
N187        N  0.77217114  0.60443877  0.44172933    -0.27000
N188        N  0.86900597  0.65545580  0.02015175    -0.26600
N189        N  0.72157775  0.50743919  0.01349309     0.00500
C190        C  0.86381886  0.57454768  0.41267265     0.41900
C191        C  0.83029947  0.53980741  0.07566000    -0.07800
N192        N  0.79976537  0.65676808  0.02044389    -0.26600
H193        H  0.91051986  0.67674921  0.05356086     0.06000
N194        N  0.83282628  0.54887145  0.42516581    -0.47800
H195        H  0.81740907  0.51026894  0.07759243     0.06000
C196        C  0.72144491  0.57305955  0.09393873     0.41700
C197        C  0.80494963  0.48781543  0.47342839    -0.07300
Co198      Co  0.76953032  0.53192290  0.03701914     0.73800
N199        N  0.86458074  0.60127156  0.08284824    -0.47500
C200        C  0.72251682  0.58025099  0.41239101     0.42000
N201        N  0.68803040  0.48783513  0.02405995    -0.47500
Co202      Co  0.81922042  0.62634619  0.04313285     0.73900
C203        C  0.78322643  0.67461622  0.03094359    -0.07800
C204        C  0.86957611  0.61041667  0.42333669    -0.07400
N205        N  0.72226121  0.50948969  0.48499787    -0.26900
N206        N  0.90487938  0.67712579  0.48159915    -0.47700
H207        H  0.76322457  0.64303881  0.41658341     0.06000
C208        C  0.72064039  0.54332987  0.07771026    -0.07800
Cl209      Cl  0.79576631  0.58231928  0.00236141    -0.50800
C210        C  0.86192411  0.56857668  0.09039435     0.41700
H211        H  0.67996592  0.48702110  0.45227649     0.05900
N212        N  0.75183047  0.60484606  0.08526651    -0.47500
C213        C  0.66484590  0.18994548  0.99790236     0.41600
N214        N  0.72092860  0.21659602  0.01126624     0.00500
C215        C  0.86833555  0.25401729  0.42333885    -0.07400
H216        H  0.75522454  0.11698567  0.41642966     0.06000
C217        C  0.77571818  0.10409798  0.03020530    -0.07800
Co218      Co  0.77202244  0.23522338  0.46199938     0.74200
N219        N  0.76807071  0.16643837  0.44064561    -0.26900
Co220      Co  0.81721392  0.18593744  0.46567181     0.74100
C221        C  0.76667734  0.08037334  0.50460045     0.41700
N222        N  0.76127473  0.17013778  0.06313467     0.00100
N223        N  0.79372140  0.13728375  0.49098646     0.00200
N224        N  0.83561459  0.28305723  0.42496187    -0.47800
H225        H  0.68066839  0.19512590  0.44942670     0.05900
N226        N  0.75206148  0.18652655  0.44070526     0.00500
N227        N  0.86530187  0.20725127  0.49172424     0.00200
C228        C  0.92193973  0.23354963  0.00611418     0.41800
N229        N  0.74542422  0.19004099  0.05933948    -0.26400
C230        C  0.80895475  0.31867054  0.47311001    -0.07300
N231        N  0.68707885  0.20178213  0.02128485    -0.47500
N232        N  0.89980811  0.22229657  0.48233475    -0.47700
C233        C  0.81789615  0.34184533  0.99883847     0.41600
N234        N  0.82115889  0.25375534  0.44166378     0.00500
N235        N  0.81431434  0.25722678  0.06044479    -0.26400
N236        N  0.72234394  0.21564285  0.48278059    -0.26900
N237        N  0.83236527  0.23948766  0.06445546     0.00100
H238        H  0.81680123  0.30485780  0.07928340     0.06000
H239        H  0.90441792  0.22903727  0.05424788     0.06000
N240        N  0.83930435  0.23573598  0.44149832    -0.27000
N241        N  0.79226975  0.13861687  0.01973810    -0.26600
N242        N  0.79140715  0.28556929  0.01205453     0.00500
C243        C  0.71848194  0.14336156  0.41106535     0.41900
C244        C  0.71447627  0.17597195  0.07446491    -0.07800
N245        N  0.86329891  0.20812216  0.02048699    -0.26600
H246        H  0.77052182  0.09669756  0.05295761     0.06000
N247        N  0.72325494  0.17403901  0.42363784    -0.47800
H248        H  0.69724608  0.18813889  0.07637794     0.06000
C249        C  0.85662936  0.28564250  0.09381772     0.41700
C250        C  0.68812951  0.19961208  0.47217493    -0.07300
Co251      Co  0.76794038  0.23762990  0.03590425     0.73800
N252        N  0.74212638  0.14224634  0.08142440    -0.47500
C253        C  0.86559684  0.28579544  0.41261445     0.42000
N254        N  0.80571237  0.31940586  0.02220196    -0.47500
Co255      Co  0.81288729  0.18846849  0.04260240     0.73900
C256        C  0.89754638  0.22405156  0.03140032    -0.07800
C257        C  0.74861289  0.13795213  0.42211079    -0.07400
N258        N  0.79279070  0.28443856  0.48357824    -0.26900
N259        N  0.77870170  0.10300130  0.48113163    -0.47700
H260        H  0.88796092  0.24560256  0.41767063     0.06000
C261        C  0.82783370  0.28662322  0.07743838    -0.07800
Cl262      Cl  0.79269144  0.21166925  0.00156762    -0.50800
C263        C  0.71174857  0.14415955  0.08879512     0.41700
H264        H  0.81311210  0.32606618  0.45033303     0.05900
N265        N  0.85817156  0.25554422  0.08487639    -0.47500
C266        C  0.34261275  0.80796156  0.99619453     0.41600
N267        N  0.28679252  0.78381367  0.00973296     0.00500
C268        C  0.13876693  0.74781188  0.42322948    -0.07400
H269        H  0.25380268  0.88468724  0.41527085     0.06000
C270        C  0.23420929  0.89895741  0.02834125    -0.07800
Co271      Co  0.23536088  0.76576141  0.46088267     0.74200
N272        N  0.24027355  0.83491132  0.43930638    -0.26900
Co273      Co  0.19164450  0.81650776  0.46444439     0.74100
C274        C  0.24334663  0.92252125  0.50262376     0.41700
N275        N  0.24866671  0.83281405  0.06144973     0.00100
N276        N  0.21599028  0.86552550  0.48930076     0.00200
N277        N  0.17078253  0.71805710  0.42489050    -0.47800
H278        H  0.32661433  0.80266352  0.44768773     0.05900
N279        N  0.25577415  0.81434857  0.43935446     0.00500
N280        N  0.14412959  0.79619129  0.49068961     0.00200
C281        C  0.08773776  0.77061507  0.00511299     0.41800
N282        N  0.26404039  0.81249495  0.05755400    -0.26400
C283        C  0.19705899  0.68235385  0.47285877    -0.07300
N284        N  0.32053948  0.79736358  0.01963445    -0.47500
N285        N  0.10968152  0.78130904  0.48130864    -0.47700
C286        C  0.18792997  0.65959042  0.99886616     0.41600
N287        N  0.18614662  0.74788193  0.44093817     0.00500
N288        N  0.19453695  0.74591961  0.05996539    -0.26400
N289        N  0.28521642  0.78441931  0.48123604    -0.26900
N290        N  0.17689840  0.76408500  0.06382262     0.00100
H291        H  0.19210792  0.69870564  0.07986297     0.06000
H292        H  0.10522393  0.77534544  0.05328462     0.06000
N293        N  0.16844929  0.76633350  0.44075684    -0.27000
N294        N  0.21755150  0.86440350  0.01805754    -0.26600
N295        N  0.21552214  0.71608724  0.01141955     0.00500
C296        C  0.28964551  0.85737732  0.40983595     0.41900
C297        C  0.29514745  0.82626169  0.07245985    -0.07800
N298        N  0.14626354  0.79559902  0.01946321    -0.26600
H299        H  0.23947238  0.90646783  0.05106267     0.06000
N300        N  0.28453603  0.82650881  0.42232506    -0.47800
H301        H  0.31186406  0.81352600  0.07430241     0.06000
C302        C  0.15298582  0.71879285  0.09413807     0.41700
C303        C  0.31929230  0.79890416  0.47048026    -0.07300
Co304      Co  0.24029192  0.76434494  0.03476781     0.73800
N305        N  0.26824969  0.86058882  0.07971967    -0.47500
C306        C  0.14057428  0.71534834  0.41301577     0.42000
N307        N  0.20071322  0.68239553  0.02195663    -0.47500
Co308      Co  0.19677255  0.81484820  0.04134208     0.73900
C309        C  0.11209416  0.78015471  0.03042611    -0.07800
C310        C  0.25994100  0.86334041  0.42082505    -0.07400
N311        N  0.21392810  0.71678089  0.48292366    -0.26900
N312        N  0.23118391  0.89976936  0.47924354    -0.47700
H313        H  0.11909916  0.75628756  0.41783733     0.06000
C314        C  0.18126906  0.71708129  0.07763718    -0.07800
Cl315      Cl  0.21589327  0.79052893  0.00038790    -0.50800
C316        C  0.29844690  0.85822408  0.08699822     0.41700
H317        H  0.19265659  0.67453512  0.45017690     0.05900
N318        N  0.15154132  0.74879829  0.08467688    -0.47500
C319        C  0.57755575  0.85683232  0.41006520     0.41600
N320        N  0.59841925  0.83199862  0.43980579     0.00500
C321        C  0.48913774  0.68679772  0.03056191    -0.07400
H322        H  0.48951477  0.81168837  0.05233952     0.06000
C323        C  0.61654344  0.86578705  0.08120191    -0.07800
Co324      Co  0.53455076  0.76753250  0.46753268     0.74200
N325        N  0.51181642  0.79184727  0.01961870    -0.26900
Co326      Co  0.53913735  0.77001407  0.04157414     0.74100
C327        C  0.58187572  0.86293314  0.09154310     0.41700
N328        N  0.66122558  0.86296299  0.01375957     0.00100
N329        N  0.56972157  0.81858085  0.06256599     0.00200
N330        N  0.48666814  0.68635881  0.48137509    -0.47800
H331        H  0.51809124  0.81742683  0.42381614     0.05900
N332        N  0.51041419  0.79122744  0.49108734     0.00500
N333        N  0.56706941  0.74914264  0.06316566     0.00200
C334        C  0.57639769  0.71572336  0.09318887     0.41800
N335        N  0.65929597  0.86160472  0.48494595    -0.26400
C336        C  0.54227276  0.71436805  0.42881274    -0.07300
N337        N  0.60886622  0.85790224  0.41932428    -0.47500
N338        N  0.55048693  0.72023444  0.08022759    -0.47700
C339        C  0.57115142  0.71122238  0.41465957     0.41600
N340        N  0.50696043  0.72001520  0.49164665     0.00500
N341        N  0.65707361  0.79039030  0.48552064    -0.26400
N342        N  0.56252542  0.81428931  0.44345919    -0.26900
N343        N  0.65909205  0.79129823  0.01431545     0.00100
H344        H  0.67788274  0.76917039  0.45257561     0.06000
H345        H  0.63962536  0.75280773  0.08842284     0.06000
N346        N  0.50879128  0.72099450  0.02016165    -0.27000
N347        N  0.60592266  0.83673053  0.06309372    -0.26600
N348        N  0.59532205  0.76029039  0.44103280     0.00500
C349        C  0.48055919  0.81773463  0.00355301     0.41900
C350        C  0.67758739  0.89617228  0.47455858    -0.07800
N351        N  0.60322680  0.76526535  0.06366566    -0.26600
H352        H  0.64457709  0.88551172  0.08705895     0.06000
N353        N  0.49165767  0.80603970  0.48050618    -0.47800
H354        H  0.67986586  0.90366756  0.45182384     0.06000
C355        C  0.68894510  0.76428970  0.00110658     0.41700
C356        C  0.54730049  0.82820838  0.42621686    -0.07300
Co357      Co  0.62881287  0.81164268  0.46218375     0.73800
N358        N  0.67981046  0.89724810  0.02371360    -0.47500
C359        C  0.47496815  0.66390531  0.00468416     0.42000
N360        N  0.60378085  0.74107200  0.42265509    -0.47500
Co361      Co  0.63370142  0.81465884  0.03924730     0.73900
C362        C  0.61206140  0.74591183  0.08236191    -0.07800
C363        C  0.49360145  0.80799776  0.02965084    -0.07400
N364        N  0.55949919  0.74490746  0.44437731    -0.26900
N365        N  0.55469843  0.83294593  0.07901057    -0.47700
H366        H  0.48531879  0.67922446  0.05330754     0.06000
C367        C  0.67513801  0.77396291  0.47530561    -0.07800
Cl368      Cl  0.58433224  0.79105644  0.00261553    -0.50800
C369        C  0.69120893  0.91990302  0.50028486     0.41700
H370        H  0.51279333  0.69781070  0.42654779     0.05900
N371        N  0.67782990  0.77590815  0.02444904    -0.47500
C372        C  0.19221611  0.52834575  0.99855683     0.41600
N373        N  0.21813583  0.49827686  0.01182047     0.00500
C374        C  0.25660166  0.38915748  0.42381386    -0.07400
H375        H  0.11738972  0.36332310  0.41860905     0.06000
C376        C  0.10737990  0.33000577  0.03163113    -0.07800
Co377      Co  0.23663052  0.46608980  0.46230956     0.74200
N378        N  0.16774681  0.40041153  0.44172110    -0.26900
Co379      Co  0.18826851  0.37132683  0.46639971     0.74100
C380        C  0.08311634  0.31509615  0.50625962     0.41700
N381        N  0.17318763  0.41143395  0.06431064     0.00100
N382        N  0.13987474  0.34543108  0.49212011     0.00200
N383        N  0.28454573  0.45102734  0.42470946    -0.47800
H384        H  0.19727050  0.51781838  0.45004781     0.05900
N385        N  0.18756953  0.43663698  0.44167193     0.00500
N386        N  0.21059677  0.34540495  0.49227803     0.00200
C387        C  0.23872284  0.31672641  0.00612023     0.41800
N388        N  0.19263978  0.44725582  0.06013310    -0.26400
C389        C  0.32024609  0.51384610  0.47310058    -0.07300
N390        N  0.20394530  0.51780165  0.02190827    -0.47500
N391        N  0.22623125  0.32670775  0.48260062    -0.47700
C392        C  0.34333169  0.52803091  0.99891897     0.41600
N393        N  0.25534606  0.43587907  0.44152597     0.00500
N394        N  0.26032481  0.44694353  0.06085111    -0.26400
N395        N  0.21703258  0.49590306  0.48333615    -0.26900
N396        N  0.24330135  0.41110668  0.06500830     0.00100
H397        H  0.30792420  0.49303501  0.07896240     0.06000
H398        H  0.23513440  0.32984639  0.05435899     0.06000
N399        N  0.23786579  0.39961377  0.44172870    -0.27000
N400        N  0.14171027  0.34829355  0.02088094    -0.26600
N401        N  0.28719147  0.49756759  0.01205529     0.00500
C402        C  0.14315453  0.42657854  0.41329692     0.41900
C403        C  0.17887694  0.46413566  0.07550945    -0.07800
N404        N  0.21213262  0.34853819  0.02103905    -0.26600
H405        H  0.10039348  0.32797383  0.05445561     0.06000
N406        N  0.17417637  0.45272600  0.42533741    -0.47800
H407        H  0.19105463  0.49362849  0.07721254     0.06000
C408        C  0.29042649  0.43427187  0.09359977     0.41700
C409        C  0.20137145  0.51440943  0.47279847    -0.07300
Co410      Co  0.23976524  0.47280024  0.03629385     0.73800
N411        N  0.14587746  0.40268580  0.08318518    -0.47500
C412        C  0.28792138  0.42394573  0.41265646     0.42000
N413        N  0.32091626  0.51726040  0.02221859    -0.47500
Co414      Co  0.19194438  0.37856287  0.04346826     0.73900
C415        C  0.22932796  0.33129617  0.03162525    -0.07800
C416        C  0.13854265  0.39106877  0.42391008    -0.07400
N417        N  0.28602867  0.49522803  0.48355812    -0.26900
N418        N  0.10540294  0.32593194  0.48257584    -0.47700
H419        H  0.24883321  0.36108616  0.41861457     0.06000
C420        C  0.29007542  0.46358488  0.07744327    -0.07800
Cl421      Cl  0.21400450  0.42188138  0.00214910    -0.50800
C422        C  0.14774421  0.43505801  0.09055121     0.41700
H423        H  0.32771988  0.51730359  0.45034072     0.05900
N424        N  0.26044583  0.40207272  0.08501564    -0.47500
C425        C  0.43421681  0.14830850  0.40918173     0.41600
N426        N  0.41289715  0.17226099  0.43940470     0.00500
C427        C  0.52061004  0.31548292  0.03251134    -0.07400
H428        H  0.51949170  0.18966790  0.05289092     0.06000
C429        C  0.39211965  0.13495647  0.08034067    -0.07800
Co430      Co  0.47624184  0.23617808  0.46828959     0.74200
N431        N  0.49807873  0.21054418  0.02019285    -0.26900
Co432      Co  0.47037751  0.23171913  0.04223836     0.74100
C433        C  0.42657235  0.13730054  0.09071775     0.41700
N434        N  0.34876021  0.13968966  0.01284561     0.00100
N435        N  0.43931268  0.18250271  0.06239539     0.00200
N436        N  0.52359625  0.31700933  0.48335517    -0.47800
H437        H  0.49354412  0.18771929  0.42348998     0.05900
N438        N  0.50005270  0.21191357  0.49168434     0.00500
N439        N  0.44221602  0.25198243  0.06396170     0.00200
C440        C  0.43292073  0.28467549  0.09461000     0.41800
N441        N  0.35133742  0.14158560  0.48407011    -0.26400
C442        C  0.46889522  0.29011854  0.43015252    -0.07300
N443        N  0.40275663  0.14679839  0.41860427    -0.47500
N444        N  0.45876820  0.28028630  0.08152959    -0.47700
C445        C  0.44012463  0.29295056  0.41548908     0.41600
N446        N  0.50335397  0.28309859  0.49317132     0.00500
N447        N  0.35316597  0.21275122  0.48542046    -0.26400
N448        N  0.44877437  0.19006779  0.44326644    -0.26900
N449        N  0.35095527  0.21142258  0.01421576     0.00100
H450        H  0.33244969  0.23455969  0.45271663     0.06000
H451        H  0.36967966  0.24822275  0.08923383     0.06000
N452        N  0.50116698  0.28145099  0.02166781    -0.27000
N453        N  0.40311034  0.16450990  0.06265441    -0.26600
N454        N  0.41577274  0.24370192  0.44156892     0.00500
C455        C  0.52932406  0.18478983  0.00413979     0.41900
C456        C  0.33367516  0.10719789  0.47331934    -0.07800
N457        N  0.40608093  0.23609605  0.06417461    -0.26600
H458        H  0.36398210  0.11519983  0.08589548     0.06000
N459        N  0.51885017  0.19717638  0.48109169    -0.47800
H460        H  0.33204311  0.10013574  0.45053692     0.06000
C461        C  0.32113110  0.23866442  0.00129871     0.41700
C462        C  0.46429098  0.17676884  0.42568122    -0.07300
Co463      Co  0.38200234  0.19199339  0.46196568     0.73800
N464        N  0.33026343  0.10522495  0.02242530    -0.47500
C465        C  0.53500087  0.33899021  0.00691858     0.42000
N466        N  0.40748992  0.26282125  0.42294829    -0.47500
Co467      Co  0.37586863  0.18735938  0.03898680     0.73900
C468        C  0.39724164  0.25508490  0.08322423    -0.07800
C469        C  0.51594876  0.19402023  0.03021731    -0.07400
N470        N  0.45155041  0.25929821  0.44540788    -0.26900
N471        N  0.45397473  0.16754156  0.07861769    -0.47700
H472        H  0.52408158  0.32262210  0.05533800     0.06000
C473        C  0.33503626  0.22928708  0.47538236    -0.07800
Cl474      Cl  0.42581842  0.21170606  0.00283338    -0.50800
C475        C  0.31968561  0.08299732  0.49878688     0.41700
H476        H  0.49839444  0.30686775  0.42812133     0.05900
N477        N  0.33222510  0.22673728  0.02449783    -0.47500
C478        C  0.27524813  0.29103520  0.03038307    -0.14200
C479        C  0.25950673  0.29639844  0.00510443     0.07900
C480        C  0.26402930  0.28226422  0.97867531    -0.14200
C481        C  0.28381295  0.26350354  0.97749160    -0.14200
C482        C  0.29964565  0.25823123  0.00271732     0.07900
C483        C  0.29495355  0.27214612  0.02921097    -0.14200
H484        H  0.27259855  0.30162934  0.05113072     0.11900
H485        H  0.25220569  0.28568050  0.95880523     0.11900
H486        H  0.28651097  0.25295909  0.95673277     0.11900
H487        H  0.30687928  0.26877479  0.04904278     0.11900
C488        C  0.42985165  0.60578211  0.02889530    -0.14200
C489        C  0.44654262  0.62515835  0.00331580     0.07900
C490        C  0.43293713  0.60863961  0.97617172    -0.14200
C491        C  0.40056563  0.57490073  0.97458705    -0.14200
C492        C  0.38159947  0.55758652  0.00016570     0.07900
C493        C  0.39749708  0.57210214  0.02731235    -0.14200
H494        H  0.44024227  0.61753975  0.05012067     0.11900
H495        H  0.44594305  0.62283553  0.95614733     0.11900
H496        H  0.38928357  0.56385333  0.95337031     0.11900
H497        H  0.38364437  0.55875066  0.04735113     0.11900
C498        C  0.27267041  0.98242965  0.47485006    -0.14200
C499        C  0.26280118  0.96359849  0.50159072     0.07900
C500        C  0.27187034  0.98448035  0.02736916    -0.14200
C501        C  0.29020321  0.02308147  0.02641324    -0.14200
C502        C  0.30004563  0.04191960  0.49967021     0.07900
C503        C  0.29109799  0.02106204  0.47389592    -0.14200
H504        H  0.26625584  0.96727909  0.45459659     0.11900
H505        H  0.26473222  0.97108262  0.04839434     0.11900
H506        H  0.29670368  0.03820485  0.04668703     0.11900
H507        H  0.29829101  0.03450942  0.45288958     0.11900
C508        C  0.17140407  0.60079114  0.47415776    -0.14200
C509        C  0.17877947  0.62119053  0.99992285     0.07900
C510        C  0.18285586  0.60659933  0.02616556    -0.14200
C511        C  0.18412708  0.57423593  0.02603142    -0.14200
C512        C  0.18138412  0.55629855  0.99965042     0.07900
C513        C  0.17278624  0.56843992  0.47400981    -0.14200
H514        H  0.16702421  0.61092789  0.45377275     0.11900
H515        H  0.18790441  0.62155872  0.04642037     0.11900
H516        H  0.19000966  0.56486338  0.04621623     0.11900
H517        H  0.16940566  0.55435466  0.45354732     0.11900
C518        C  0.40202078  0.82420732  0.47247600    -0.14200
C519        C  0.38167821  0.81978516  0.99778938     0.07900
C520        C  0.39777635  0.82274908  0.02514292    -0.14200
C521        C  0.43207688  0.82572656  0.02717803    -0.14200
C522        C  0.45052973  0.82566126  0.00184371     0.07900
C523        C  0.43642599  0.82722712  0.47451625    -0.14200
H524        H  0.39052912  0.82292909  0.45114199     0.11900
H525        H  0.38287236  0.82028428  0.04501956     0.11900
H526        H  0.44266002  0.82531485  0.04854841     0.11900
H527        H  0.45069048  0.82802675  0.45467194     0.11900
C528        C  0.74124763  0.02075938  0.47689141    -0.14200
C529        C  0.74766465  0.03930196  0.50360686     0.07900
C530        C  0.73564774  0.01814026  0.02927281    -0.14200
C531        C  0.71763687  0.97952693  0.02820522    -0.14200
C532        C  0.71104306  0.96099256  0.50145303     0.07900
C533        C  0.72317694  0.98216222  0.47581998    -0.14200
H534        H  0.75015843  0.03611631  0.45671801     0.11900
H535        H  0.74001575  0.03131989  0.05027112     0.11900
H536        H  0.70861543  0.96414945  0.04836618     0.11900
H537        H  0.71876776  0.96897465  0.45482015     0.11900
C538        C  0.98315864  0.26328525  0.47956126    -0.14200
C539        C  0.96320200  0.25369166  0.00584036     0.07900
C540        C  0.98319422  0.26401689  0.03207239    -0.14200
C541        C  0.02179766  0.28356914  0.03209694    -0.14200
C542        C  0.04184740  0.29351709  0.00589323     0.07900
C543        C  0.02193838  0.28292192  0.47958606    -0.14200
H544        H  0.96878275  0.25582851  0.45892701     0.11900
H545        H  0.96908001  0.25714033  0.05278338     0.11900
H546        H  0.03586683  0.29096045  0.05283209     0.11900
H547        H  0.03634801  0.29003546  0.45897324     0.11900
C548        C  0.60925832  0.17488116  0.02637416    -0.14200
C549        C  0.62581874  0.17826214  0.99919533     0.07900
C550        C  0.60634137  0.17544923  0.47367448    -0.14200
C551        C  0.57270777  0.17408826  0.47538886    -0.14200
C552        C  0.55838271  0.17547685  0.00260414     0.07900
C553        C  0.57562519  0.17347591  0.02808928    -0.14200
H554        H  0.62348022  0.17606067  0.04636613     0.11900
H555        H  0.61813246  0.17706647  0.45243153     0.11900
H556        H  0.55935322  0.17476470  0.45542259     0.11900
H557        H  0.56473176  0.17362447  0.04936949     0.11900
C558        C  0.98822947  0.72412903  0.03081353    -0.14200
C559        C  0.96832084  0.71052800  0.00475862     0.07900
C560        C  0.98813991  0.71780418  0.47857173    -0.14200
C561        C  0.02683841  0.73762909  0.47857051    -0.14200
C562        C  0.04666096  0.75066098  0.00475608     0.07900
C563        C  0.02676427  0.74386355  0.03081263    -0.14200
H564        H  0.97410031  0.71953209  0.05139048     0.11900
H565        H  0.97373604  0.70775512  0.45810970     0.11900
H566        H  0.04125611  0.74233442  0.45809279     0.11900
H567        H  0.04091738  0.75373175  0.05136602     0.11900
C568        C  0.74352691  0.71851287  0.97757948    -0.14200
C569        C  0.75216929  0.70841503  0.00433767     0.07900
C570        C  0.73985856  0.71699904  0.03006104    -0.14200
C571        C  0.71947498  0.73513605  0.02902724    -0.14200
C572        C  0.71076224  0.74513982  0.00225365     0.07900
C573        C  0.72309265  0.73657351  0.97654482    -0.14200
H574        H  0.75249942  0.71236044  0.95734964     0.11900
H575        H  0.74585829  0.70966936  0.05109673     0.11900
H576        H  0.71039144  0.74119979  0.04924086     0.11900
H577        H  0.71707031  0.74386118  0.95550124     0.11900
C578        C  0.83045428  0.43184669  0.97338320    -0.14200
C579        C  0.82479413  0.44543626  0.99952702     0.07900
C580        C  0.82495253  0.42885759  0.02597263    -0.14200
C581        C  0.82609642  0.39636111  0.02594571    -0.14200
C582        C  0.82708549  0.38031426  0.99947195     0.07900
C583        C  0.83163670  0.39942491  0.97335742    -0.14200
H584        H  0.83160482  0.44477443  0.45273756     0.11900
H585        H  0.82155135  0.43947731  0.04648589     0.11900
H586        H  0.82346951  0.38248237  0.04643773     0.11900
H587        H  0.83358171  0.38824118  0.95268318     0.11900
C588        C  0.61177099  0.43137136  0.02983414    -0.14200
C589        C  0.62710603  0.44650928  0.00263734     0.07900
C590        C  0.60794358  0.42915915  0.97714631    -0.14200
C591        C  0.57606659  0.39500399  0.97875202    -0.14200
C592        C  0.56302729  0.37797821  0.00583912     0.07900
C593        C  0.57984007  0.39720793  0.03144085    -0.14200
H594        H  0.62576113  0.44468550  0.04983384     0.11900
H595        H  0.61871770  0.44058427  0.95590289     0.11900
H596        H  0.56298489  0.38094898  0.95871056     0.11900
H597        H  0.56986749  0.38501446  0.05263130     0.11900
C598        C  0.42883991  0.34421824  0.15517506    -0.14200
C599        C  0.46638485  0.36559704  0.16274096     0.07900
C600        C  0.49204426  0.36007778  0.14778343    -0.14200
C601        C  0.48059884  0.33390953  0.12570436    -0.14200
C602        C  0.44312084  0.31232665  0.11805393     0.07900
C603        C  0.41726393  0.31769383  0.13303379    -0.14200
H604        H  0.40834139  0.34793087  0.16643397     0.11900
H605        H  0.52099151  0.37596883  0.15305548     0.11900
H606        H  0.50145628  0.33057445  0.11465964     0.11900
H607        H  0.38835659  0.30156872  0.12766315     0.11900
C608        C  0.49325517  0.37583691  0.36733567    -0.14200
C609        C  0.46843181  0.36896640  0.34478112     0.07900
C610        C  0.43266842  0.33825136  0.34654839    -0.14200
C611        C  0.42240057  0.31387220  0.37012718    -0.14200
C612        C  0.44764711  0.32032669  0.39239858     0.07900
C613        C  0.48279253  0.35211681  0.39109542    -0.14200
H614        H  0.52059061  0.39975934  0.36678086     0.11900
H615        H  0.41295183  0.33262593  0.32932672     0.11900
H616        H  0.39532429  0.28958559  0.37050474     0.11900
H617        H  0.50270553  0.35856902  0.40827573     0.11900
C618        C  0.66254679  0.58465174  0.15078960    -0.14200
C619        C  0.64450061  0.54929815  0.16360753     0.07900
C620        C  0.65372988  0.52330955  0.15450369    -0.14200
C621        C  0.67983451  0.53202991  0.13277854    -0.14200
C622        C  0.69721249  0.56688432  0.11922950     0.07900
C623        C  0.68880583  0.59341103  0.12877552    -0.14200
H624        H  0.65612181  0.60546298  0.15740321     0.11900
H625        H  0.64070902  0.49610615  0.16413000     0.11900
H626        H  0.68618506  0.51102789  0.12662402     0.11900
H627        H  0.70163534  0.62034145  0.11869653     0.11900
C628        C  0.64624651  0.52443407  0.35896358    -0.14200
C629        C  0.64431997  0.55151800  0.34279476     0.07900
C630        C  0.66818843  0.58890849  0.34986592    -0.14200
C631        C  0.69368801  0.59890850  0.37262024    -0.14200
C632        C  0.69547836  0.57165378  0.38877050     0.07900
C633        C  0.67127956  0.53433772  0.38176588    -0.14200
H634        H  0.62818258  0.49555642  0.35415897     0.11900
H635        H  0.66755906  0.61059712  0.33767325     0.11900
H636        H  0.71194874  0.62772289  0.37744969     0.11900
H637        H  0.67176406  0.51242154  0.39379749     0.11900
C638        C  0.58146786  0.65769733  0.15474972    -0.14200
C639        C  0.54385083  0.63489218  0.16152982     0.07900
C640        C  0.51774993  0.63838091  0.14524832    -0.14200
C641        C  0.52886142  0.66424392  0.12287966    -0.14200
C642        C  0.56642263  0.68759029  0.11629505     0.07900
C643        C  0.59268862  0.68394789  0.13237120    -0.14200
H644        H  0.60230990  0.65552149  0.16696438     0.11900
H645        H  0.48871553  0.62120343  0.14977519     0.11900
H646        H  0.50771028  0.66611558  0.11087495     0.11900
H647        H  0.62168573  0.70143423  0.12784102     0.11900
C648        C  0.58000900  0.66230141  0.34834396    -0.14200
C649        C  0.54364926  0.63271099  0.34570910     0.07900
C650        C  0.51806070  0.62753207  0.36715321    -0.14200
C651        C  0.52817455  0.65195930  0.39038442    -0.14200
C652        C  0.56384588  0.68293925  0.39230998     0.07900
C653        C  0.58999514  0.68747007  0.37138940    -0.14200
H654        H  0.60042317  0.66658749  0.33210376     0.11900
H655        H  0.49022541  0.60449784  0.36606063     0.11900
H656        H  0.50747990  0.64666027  0.40659166     0.11900
H657        H  0.61759970  0.71090502  0.37232692     0.11900
C658        C  0.34910757  0.42074953  0.14984135    -0.14200
C659        C  0.36900059  0.45626651  0.16213357     0.07900
C660        C  0.36211153  0.48364457  0.15214874    -0.14200
C661        C  0.33607327  0.47589752  0.13044345    -0.14200
C662        C  0.31622565  0.44054616  0.11789973     0.07900
C663        C  0.32280554  0.41291867  0.12798756    -0.14200
H664        H  0.35377169  0.39892599  0.15702626     0.11900
H665        H  0.37675172  0.51113074  0.16120956     0.11900
H666        H  0.33148559  0.49792008  0.12375012     0.11900
H667        H  0.30815127  0.38558565  0.11866759     0.11900
C668        C  0.34101247  0.46935442  0.38289913    -0.14200
C669        C  0.31618391  0.43219797  0.38995145     0.07900
C670        C  0.31828823  0.40467000  0.37443315    -0.14200
C671        C  0.34421907  0.41420950  0.35198968    -0.14200
C672        C  0.36830380  0.45143582  0.34451239     0.07900
C673        C  0.36649869  0.47881005  0.36039715    -0.14200
H674        H  0.34047981  0.49146858  0.39453577     0.11900
H675        H  0.29969229  0.37593880  0.37933520     0.11900
H676        H  0.34483018  0.39228446  0.34018397     0.11900
H677        H  0.38479185  0.50759920  0.35542087     0.11900
C678        C  0.91642242  0.57538721  0.15831162    -0.14200
C679        C  0.91005741  0.53912384  0.16018437     0.07900
C680        C  0.89091080  0.51431360  0.13790585    -0.14200
C681        C  0.87769114  0.52520169  0.11441248    -0.14200
C682        C  0.88206894  0.56077248  0.11312489     0.07900
C683        C  0.90221926  0.58607826  0.13504680    -0.14200
H684        H  0.93158718  0.59519161  0.17524876     0.11900
H685        H  0.88651921  0.48662609  0.13846128     0.11900
H686        H  0.86341963  0.50519614  0.09744665     0.11900
H687        H  0.90602606  0.61353651  0.13465581     0.11900
C688        C  0.88257676  0.51459514  0.36224233    -0.14200
C689        C  0.91078140  0.54041914  0.34458561     0.07900
C690        C  0.92524756  0.57824055  0.35040687    -0.14200
C691        C  0.91096721  0.58995803  0.37291282    -0.14200
C692        C  0.88212716  0.56403063  0.39012083     0.07900
C693        C  0.86858313  0.52623321  0.38478669    -0.14200
H694        H  0.87113867  0.48541304  0.35857180     0.11900
H695        H  0.94727916  0.59889261  0.33720745     0.11900
H696        H  0.92197759  0.61909667  0.37647404     0.11900
H697        H  0.84650511  0.50531719  0.39779275     0.11900
C698        C  0.90944960  0.31654447  0.12903720    -0.14200
C699        C  0.87507985  0.30961942  0.11914651     0.07900
C700        C  0.85861404  0.32787722  0.13259812    -0.14200
C701        C  0.87659472  0.35355091  0.15453282    -0.14200
C702        C  0.91143490  0.36153820  0.16381859     0.07900
C703        C  0.92758810  0.34243671  0.15119565    -0.14200
H704        H  0.92267764  0.30285329  0.11909522     0.11900
H705        H  0.83168138  0.32260873  0.12617465     0.11900
H706        H  0.86325489  0.36737280  0.16406473     0.11900
H707        H  0.95442290  0.34780032  0.15804729     0.11900
C708        C  0.87523831  0.34037968  0.38437672    -0.14200
C709        C  0.88505709  0.31328395  0.38944801     0.07900
C710        C  0.91090593  0.31190048  0.37119184    -0.14200
C711        C  0.92621383  0.33689260  0.34806855    -0.14200
C712        C  0.91567550  0.36341097  0.34275982     0.07900
C713        C  0.89010785  0.36490289  0.36117000    -0.14200
H714        H  0.85549039  0.34241386  0.39818234     0.11900
H715        H  0.91874216  0.29124697  0.37443175     0.11900
H716        H  0.94581910  0.33495662  0.33405884     0.11900
H717        H  0.88185431  0.38523969  0.35779301     0.11900
C718        C  0.11639307  0.48795909  0.13729533    -0.14200
C719        C  0.09869632  0.46364142  0.16022827     0.07900
C720        C  0.09387334  0.42792680  0.15898451    -0.14200
C721        C  0.10831464  0.41743712  0.13576680    -0.14200
C722        C  0.12714719  0.44235075  0.11323329     0.07900
C723        C  0.12986585  0.47723034  0.11386752    -0.14200
H724        H  0.11952381  0.51515888  0.13733650     0.11900
H725        H  0.07983974  0.40847919  0.17641536     0.11900
H726        H  0.10581406  0.39051233  0.13591500     0.11900
H727        H  0.14311668  0.49684477  0.09643663     0.11900
C728        C  0.08359276  0.42307415  0.34958317    -0.14200
C729        C  0.09685004  0.46095892  0.34490910     0.07900
C730        C  0.12306861  0.48645557  0.36397915    -0.14200
C731        C  0.13638452  0.47451962  0.38680920    -0.14200
C732        C  0.12433989  0.43678044  0.39094096     0.07900
C733        C  0.09733522  0.41106750  0.37234546    -0.14200
H734        H  0.06306037  0.40266767  0.33524192     0.11900
H735        H  0.13340849  0.51562441  0.36124132     0.11900
H736        H  0.15694624  0.49525407  0.40093671     0.11900
H737        H  0.08756691  0.38198938  0.37492301     0.11900
C738        C  0.13431339  0.65286947  0.15637957    -0.14200
C739        C  0.09820903  0.64232857  0.16407746     0.07900
C740        C  0.08084656  0.65946225  0.15003580    -0.14200
C741        C  0.09899578  0.68579825  0.12809512    -0.14200
C742        C  0.13466394  0.69521704  0.11977535     0.07900
C743        C  0.15231856  0.67901524  0.13461925    -0.14200
H744        H  0.14861552  0.64067040  0.16701153     0.11900
H745        H  0.05297578  0.65204910  0.15550990     0.11900
H746        H  0.08473453  0.69768791  0.11694625     0.11900
H747        H  0.18016020  0.68619423  0.12923624     0.11900
C748        C  0.11411549  0.63440156  0.36349313    -0.14200
C749        C  0.09017025  0.63705727  0.34397228     0.07900
C750        C  0.08036453  0.66426681  0.34842597    -0.14200
C751        C  0.09541016  0.68928491  0.37151860    -0.14200
C752        C  0.12015922  0.68713473  0.39060086     0.07900
C753        C  0.12863316  0.65889219  0.38670078    -0.14200
H754        H  0.12155440  0.61335965  0.36085498     0.11900
H755        H  0.06183767  0.66693132  0.33361147     0.11900
H756        H  0.08856402  0.71076576  0.37391190     0.11900
H757        H  0.14736401  0.65616307  0.40127579     0.11900
C758        C  0.38011463  0.88670418  0.13651005    -0.14200
C759        C  0.37409390  0.90623943  0.15825048     0.07900
C760        C  0.34470600  0.91309858  0.15518614    -0.14200
C761        C  0.32062255  0.89897046  0.13139175    -0.14200
C762        C  0.32596514  0.87826403  0.11012176     0.07900
C763        C  0.35671035  0.87339892  0.11252768    -0.14200
H764        H  0.40302903  0.88186455  0.13794018     0.11900
H765        H  0.33975325  0.92854163  0.17162641     0.11900
H766        H  0.29733040  0.90322365  0.13012408     0.11900
H767        H  0.36254027  0.85861258  0.09612641     0.11900
C768        C  0.36980193  0.87779683  0.36108280    -0.14200
C769        C  0.37155247  0.90519240  0.34289505     0.07900
C770        C  0.34693544  0.91832233  0.34745735    -0.14200
C771        C  0.32047097  0.90366603  0.36955666    -0.14200
C772        C  0.31848361  0.87587549  0.38751415     0.07900
C773        C  0.34371689  0.86345099  0.38322036    -0.14200
H774        H  0.38854783  0.86746755  0.35826390     0.11900
H775        H  0.34776330  0.93961518  0.33364533     0.11900
H776        H  0.30135586  0.91356067  0.37225481     0.11900
H777        H  0.34312570  0.84211542  0.39683269     0.11900
C778        C  0.60110585  0.91098678  0.13084026    -0.14200
C779        C  0.57363097  0.88257247  0.11430032     0.07900
C780        C  0.53647731  0.87085912  0.12046405    -0.14200
C781        C  0.52691006  0.88630878  0.14319945    -0.14200
C782        C  0.55422803  0.91426355  0.16007284     0.07900
C783        C  0.59147105  0.92684307  0.15348981    -0.14200
H784        H  0.62980737  0.92049769  0.12660658     0.11900
H785        H  0.51445421  0.84912248  0.10797657     0.11900
H786        H  0.49813681  0.87640134  0.14754838     0.11900
H787        H  0.61327826  0.94841916  0.16618840     0.11900
C788        C  0.58821601  0.92835005  0.35450823    -0.14200
C789        C  0.55409714  0.90946465  0.33990777     0.07900
C790        C  0.52986989  0.87267257  0.34694261    -0.14200
C791        C  0.53890376  0.85538041  0.36861527    -0.14200
C792        C  0.57223366  0.87450238  0.38410989     0.07900
C793        C  0.59725121  0.91094706  0.37644532    -0.14200
H794        H  0.60761608  0.95683289  0.34954500     0.11900
H795        H  0.50374722  0.85726175  0.33583802     0.11900
H796        H  0.51924764  0.82693847  0.37353647     0.11900
H797        H  0.62291683  0.92632895  0.38816006     0.11900
C798        C  0.62727382  0.11149929  0.13537679    -0.14200
C799        C  0.63455253  0.09448201  0.15843727     0.07900
C800        C  0.66568342  0.09022395  0.15713706    -0.14200
C801        C  0.69031945  0.10469126  0.13376562    -0.14200
C802        C  0.68375383  0.12307269  0.11121700     0.07900
C803        C  0.65131785  0.12515192  0.11181784    -0.14200
H804        H  0.60296302  0.11413650  0.13550821     0.11900
H805        H  0.67158380  0.07673518  0.17467897     0.11900
H806        H  0.71503049  0.10277361  0.13388886     0.11900
H807        H  0.64479237  0.13819096  0.09433830     0.11900
C808        C  0.66492570  0.13771041  0.38352486    -0.14200
C809        C  0.68974035  0.12486025  0.38847691     0.07900
C810        C  0.68731590  0.09653412  0.37096779    -0.14200
C811        C  0.66102569  0.08191802  0.34864711    -0.14200
C812        C  0.63697025  0.09559762  0.34333920     0.07900
C813        C  0.63903529  0.12341256  0.36116887    -0.14200
H814        H  0.66574245  0.15941194  0.39675294     0.11900
H815        H  0.70596656  0.08615888  0.37419199     0.11900
H816        H  0.65992626  0.06023269  0.33522032     0.11900
H817        H  0.62074390  0.13420281  0.35784852     0.11900
C818        C  0.41645854  0.07254550  0.15236941    -0.14200
C819        C  0.45367732  0.08570155  0.15955423     0.07900
C820        C  0.48107207  0.11398805  0.14298332    -0.14200
C821        C  0.47165437  0.12936141  0.12008013    -0.14200
C822        C  0.43454108  0.11730792  0.11342998     0.07900
C823        C  0.40694712  0.08837893  0.12954065    -0.14200
H824        H  0.39457831  0.05059024  0.16475225     0.11900
H825        H  0.50983033  0.12431884  0.14775671     0.11900
H826        H  0.49379643  0.15143326  0.10792042     0.11900
H827        H  0.37826383  0.07849951  0.12487030     0.11900
C828        C  0.42114789  0.07625380  0.35302134    -0.14200
C829        C  0.45592782  0.09351030  0.33936951     0.07900
C830        C  0.48175198  0.12950744  0.34736889    -0.14200
C831        C  0.47361388  0.14748957  0.36905707    -0.14200
C832        C  0.43948398  0.12993817  0.38357879     0.07900
C833        C  0.41295754  0.09438497  0.37491710    -0.14200
H834        H  0.40046060  0.04848641  0.34726804     0.11900
H835        H  0.50848611  0.14374784  0.33704367     0.11900
H836        H  0.49451722  0.17524951  0.37462388     0.11900
H837        H  0.38655810  0.08019337  0.38575149     0.11900
C838        C  0.46541632  0.07434949  0.81686217     0.41600
N839        N  0.49441229  0.06370532  0.78310641     0.00500
C840        C  0.42296538  0.90812341  0.69643640    -0.07400
H841        H  0.42509307  0.88414083  0.81211785     0.06000
C842        C  0.56833720  0.96282636  0.80348232    -0.07800
Co843      Co  0.44368370  0.99420858  0.75179449     0.74200
N844        N  0.43913913  0.93045766  0.78367175    -0.26900
Co845      Co  0.47613631  0.93281103  0.75135951     0.74100
C846        C  0.54389460  0.92781881  0.81726147     0.41700
N847        N  0.58109256  0.04654783  0.78291932     0.00100
N848        N  0.51446164  0.93751143  0.78328260     0.00200
N849        N  0.40264348  0.94858145  0.69993433    -0.47800
H850        H  0.41173121  0.02049470  0.80720221     0.05900
N851        N  0.42790631  0.95466794  0.78311675     0.00500
N852        N  0.51451171  0.93824921  0.71917219     0.00200
C853        C  0.54406058  0.93040187  0.68435596     0.41800
N854        N  0.56976248  0.07068141  0.78346851    -0.26400
C855        C  0.43940585  0.03633720  0.69948151    -0.07300
N856        N  0.49830181  0.08824711  0.80307396    -0.47500
N857        N  0.51077474  0.91542259  0.69771034    -0.47700
C858        C  0.46387188  0.06997986  0.68417808     0.41600
N859        N  0.42672601  0.95389130  0.72051047     0.00500
N860        N  0.56930490  0.07015234  0.71907113    -0.26400
N861        N  0.46086441  0.03497281  0.78292645    -0.26900
N862        N  0.58157125  0.04680682  0.72031242     0.00100
H863        H  0.58116135  0.11480933  0.68937123     0.06000
H864        H  0.59745243  0.98349315  0.69574939     0.06000
N865        N  0.43898300  0.93052901  0.71939097    -0.27000
N866        N  0.54792068  0.96636223  0.78288490    -0.26600
N867        N  0.49374358  0.06245788  0.71900372     0.00500
C868        C  0.39875136  0.92052000  0.81918788     0.41900
C869        C  0.58667168  0.09360600  0.80605105    -0.07800
N870        N  0.54812267  0.96680630  0.72030091    -0.26600
H871        H  0.59727209  0.98163948  0.80708660     0.06000
N872        N  0.40392309  0.94959524  0.80356081    -0.47800
H873        H  0.58354735  0.11674481  0.81208158     0.06000
C874        C  0.60941793  0.08013017  0.68348361     0.41700
C875        C  0.44067724  0.03908355  0.80343621    -0.07300
Co876      Co  0.53244179  0.06810702  0.75112511     0.73800
N877        N  0.60505167  0.05159061  0.80345274    -0.47500
C878        C  0.39876361  0.92034997  0.68371839     0.42000
N879        N  0.49728528  0.08506946  0.69738972    -0.47500
Co880      Co  0.56488467  0.00677303  0.75165950     0.73900
C881        C  0.56864258  0.96422185  0.69940076    -0.07800
C882        C  0.42216428  0.90743587  0.80617176    -0.07400
N883        N  0.46012956  0.03393510  0.72033207    -0.26900
N884        N  0.51087581  0.91335103  0.80355176    -0.47700
H885        H  0.42710393  0.88575824  0.68990488     0.06000
C886        C  0.58522912  0.09241872  0.69601375    -0.07800
Cl887      Cl  0.50428373  0.00047951  0.75151032    -0.57100
C888        C  0.61014432  0.08056573  0.81918272     0.41700
H889        H  0.41056524  0.01702723  0.69600639     0.05900
N890        N  0.60564217  0.05202979  0.69981335    -0.47500
C891        C  0.07471669  0.61114733  0.81939899     0.41600
N892        N  0.06682380  0.57338080  0.78484732     0.00500
C893        C  0.91189190  0.49135671  0.69762823    -0.07400
H894        H  0.88920543  0.46553326  0.81360324     0.06000
C895        C  0.96601106  0.39918997  0.80380395    -0.07800
Co896      Co  0.99893245  0.55620473  0.75196967     0.74200
N897        N  0.93478069  0.49768225  0.78451567    -0.26900
Co898      Co  0.93671048  0.46251596  0.75250883     0.74100
C899        C  0.93213925  0.38997257  0.81859808     0.41700
N900        N  0.04952020  0.46907842  0.78371455     0.00100
N901        N  0.94137315  0.42888439  0.78456214     0.00200
N902        N  0.95379340  0.55207221  0.70040149    -0.47800
H903        H  0.02251121  0.61236767  0.80730339     0.05900
N904        N  0.95881343  0.53324531  0.78342743     0.00500
N905        N  0.94109219  0.42887023  0.72060694     0.00200
C906        C  0.93047631  0.38961271  0.68661078     0.41800
N907        N  0.07366447  0.50461151  0.78487738    -0.26400
C908        C  0.04391997  0.60357073  0.70016041    -0.07300
N909        N  0.08940223  0.59231437  0.80652797    -0.47500
N910        N  0.91681193  0.40877106  0.70031812    -0.47700
C911        C  0.07899421  0.61375643  0.68671328     0.41600
N912        N  0.95900342  0.53301703  0.72075169     0.00500
N913        N  0.07404798  0.50518189  0.72040355    -0.26400
N914        N  0.03874028  0.57902098  0.78328557    -0.26900
N915        N  0.04994770  0.46958182  0.72108354     0.00100
H916        H  0.11983077  0.53769151  0.69154359     0.06000
H917        H  0.98359232  0.38877655  0.69661454     0.06000
N918        N  0.93480426  0.49745784  0.72016165    -0.27000
N919        N  0.96947538  0.42324299  0.78336535    -0.26600
N920        N  0.06806309  0.57414006  0.72070340     0.00500
C921        C  0.92527138  0.52859711  0.82002203     0.41900
C922        C  0.09617294  0.51011859  0.80765498    -0.07800
N923        N  0.96942695  0.42355895  0.72094113    -0.26600
H924        H  0.98466532  0.38891358  0.80725146     0.06000
N925        N  0.95396985  0.55242878  0.80386755    -0.47800
H926        H  0.11926689  0.53630368  0.81409803     0.06000
C927        C  0.08401690  0.47472932  0.68492194     0.41700
C928        C  0.04144476  0.60242383  0.80394915    -0.07300
Co929      Co  0.07201312  0.54007563  0.75276812     0.73800
N930        N  0.05416598  0.44962826  0.80405436    -0.47500
C931        C  0.92474158  0.52796275  0.68479222     0.42000
N932        N  0.09261378  0.59460047  0.70062123    -0.47500
Co933      Co  0.00972739  0.44632570  0.75221384     0.73900
C934        C  0.96527820  0.39939290  0.70032011    -0.07800
C935        C  0.91216931  0.49185655  0.80724373    -0.07400
N936        N  0.03960001  0.57926685  0.72079648    -0.26900
N937        N  0.91801996  0.40928101  0.80563314    -0.47700
H938        H  0.88866981  0.46504141  0.69160525     0.06000
C939        C  0.09678732  0.51132851  0.69773006    -0.07800
Cl940      Cl  0.00435691  0.50128776  0.75234105    -0.50800
C941        C  0.08285648  0.47320021  0.82027254     0.41700
H942        H  0.02560329  0.61417108  0.69634284     0.05900
N943        N  0.05513311  0.45057344  0.70069178    -0.47500
C944        C  0.39506896  0.46156351  0.82027762     0.41600
N945        N  0.43320550  0.49124570  0.78556544     0.00500
C946        C  0.51485968  0.41691694  0.69920867    -0.07400
H947        H  0.54199213  0.42225950  0.81364213     0.06000
C948        C  0.60751449  0.56534089  0.80430037    -0.07800
Co949      Co  0.45061412  0.44061713  0.75272458     0.74200
N950        N  0.50937502  0.43540049  0.78496615    -0.26900
Co951      Co  0.54439614  0.47233043  0.75303207     0.74100
C952        C  0.61719318  0.54094757  0.81898585     0.41700
N953        N  0.53772463  0.57862784  0.78433614     0.00100
N954        N  0.57822822  0.51087326  0.78502291     0.00200
N955        N  0.45457729  0.39929294  0.70135799    -0.47800
H956        H  0.39407461  0.40794353  0.80862309     0.05900
N957        N  0.47375515  0.42341665  0.78396054     0.00500
N958        N  0.57789955  0.51046732  0.72096154     0.00200
C959        C  0.61655076  0.53954219  0.68662153     0.41800
N960        N  0.50214156  0.56667846  0.78551263    -0.26400
C961        C  0.40488691  0.43910647  0.69988141    -0.07300
N962        N  0.41401571  0.49496487  0.80697131    -0.47500
N963        N  0.59776556  0.50651403  0.70036413    -0.47700
C964        C  0.39613093  0.46470979  0.68573780     0.41600
N965        N  0.47378593  0.42400893  0.72140458     0.00500
N966        N  0.50189185  0.56730668  0.72125083    -0.26400
N967        N  0.42761462  0.45746626  0.78430805    -0.26900
N968        N  0.53730267  0.57838356  0.72158511     0.00100
H969        H  0.46966477  0.58165245  0.69320299     0.06000
H970        H  0.61723435  0.59333530  0.69702820     0.06000
N971        N  0.50918108  0.43492798  0.72102629    -0.27000
N972        N  0.58355480  0.54455657  0.78390623    -0.26600
N973        N  0.43346891  0.49227387  0.72121303     0.00500
C974        C  0.47908749  0.39439681  0.81996511     0.41900
C975        C  0.49613058  0.58305146  0.80832801    -0.07800
N976        N  0.58311649  0.54413239  0.72146386    -0.26600
H977        H  0.61755632  0.59430627  0.80762318     0.06000
N978        N  0.45478717  0.39881892  0.80418735    -0.47800
H979        H  0.46979077  0.57942812  0.81472569     0.06000
C980        C  0.53235973  0.60793519  0.68564026     0.41700
C981        C  0.40409654  0.43688729  0.80513032    -0.07300
Co982      Co  0.46693792  0.52994580  0.75346385     0.73800
N983        N  0.55686726  0.60284833  0.80475126    -0.47500
C984        C  0.47825451  0.39328587  0.68623433     0.42000
N985        N  0.41471215  0.49719528  0.70017235    -0.47500
Co986      Co  0.56049059  0.56160355  0.75278617     0.73900
C987        C  0.60687440  0.56436166  0.70068488    -0.07800
C988        C  0.51560956  0.41873636  0.80747589    -0.07400
N989        N  0.42794619  0.45848962  0.72138795    -0.26900
N990        N  0.59812715  0.50740950  0.80597328    -0.47700
H991        H  0.54093694  0.41925190  0.69376047     0.06000
C992        C  0.49590625  0.58453968  0.69894131    -0.07800
Cl993      Cl  0.50560316  0.50110077  0.75302381    -0.50800
C994        C  0.53275478  0.60710578  0.82089755     0.41700
H995        H  0.39475544  0.41033297  0.69547350     0.05900
N996        N  0.55626291  0.60251462  0.70107077    -0.47500
C997        C  0.81414149  0.47358160  0.49898011     0.41600
N998        N  0.78975803  0.50491506  0.51271038     0.00500
C999        C  0.75434214  0.61501744  0.92293317    -0.07400
H1000       H  0.89087689  0.63794255  0.91761397     0.06000
C1001       C  0.90334442  0.67406532  0.53074133    -0.07800
Co1002     Co  0.77156298  0.53747089  0.96321893     0.74200
N1003       N  0.84097947  0.60182178  0.94157172    -0.26900
Co1004     Co  0.82192125  0.63220231  0.96600762     0.74100
C1005       C  0.92725392  0.68847676  0.00521923     0.41700
N1006       N  0.83719101  0.59292148  0.56413291     0.00100
N1007       N  0.87054090  0.65772003  0.99136019     0.00200
N1008       N  0.72469965  0.55313151  0.92558774    -0.47800
H1009       H  0.80838510  0.48421220  0.95059766     0.05900
N1010       N  0.82045878  0.56563692  0.94182948     0.00500
N1011       N  0.80079342  0.65929924  0.99164408     0.00200
C1012       C  0.77347500  0.68871189  0.50534019     0.41800
N1013       N  0.81702640  0.55710456  0.56026457    -0.26400
C1014       C  0.68781286  0.49089565  0.97496356    -0.07300
N1015       N  0.80341599  0.48474115  0.52259177    -0.47500
N1016       N  0.78520126  0.67799047  0.98182957    -0.47700
C1017       C  0.66511810  0.47681981  0.50104877     0.41600
N1018       N  0.75373262  0.56819575  0.94247936     0.00500
N1019       N  0.75032729  0.55921584  0.56111683    -0.26400
N1020       N  0.79031907  0.50704927  0.98422450    -0.26900
N1021       N  0.76814465  0.59508403  0.56509895     0.00100
H1022       H  0.70222464  0.51398911  0.57942368     0.06000
H1023       H  0.77775051  0.67642081  0.55368288     0.06000
N1024       N  0.77217107  0.60443874  0.94172936    -0.27000
N1025       N  0.86900607  0.65545596  0.52015177    -0.26600
N1026       N  0.72157783  0.50743925  0.51349304     0.00500
C1027       C  0.86381871  0.57454759  0.91267264     0.41900
C1028       C  0.83029946  0.53980748  0.57566007    -0.07800
N1029       N  0.79976539  0.65676813  0.52044392    -0.26600
H1030       H  0.91051999  0.67674941  0.55356084     0.06000
N1031       N  0.83282612  0.54887136  0.92516577    -0.47800
H1032       H  0.81740904  0.51026901  0.57759253     0.06000
C1033       C  0.72144490  0.57305963  0.59393879     0.41700
C1034       C  0.80494935  0.48781523  0.97342835    -0.07300
Co1035     Co  0.76953036  0.53192296  0.53701912     0.73800
N1036       N  0.86458072  0.60127164  0.58284831    -0.47500
C1037       C  0.72251672  0.58025105  0.91239110     0.42000
N1038       N  0.68803047  0.48783521  0.52405989    -0.47500
Co1039     Co  0.81922046  0.62634627  0.54313291     0.73900
C1040       C  0.78322643  0.67461625  0.53094357    -0.07800
C1041       C  0.86957602  0.61041657  0.92333675    -0.07400
N1042       N  0.72226111  0.50948966  0.98499793    -0.26900
N1043       N  0.90487929  0.67712561  0.98159916    -0.47700
H1044       H  0.76322460  0.64303888  0.91658350     0.06000
C1045       C  0.72064039  0.54332994  0.57771033    -0.07800
Cl1046     Cl  0.79576638  0.58231936  0.50236142    -0.50800
C1047       C  0.86192402  0.56857675  0.59039450     0.41700
H1048       H  0.67996584  0.48702123  0.95227657     0.05900
N1049       N  0.75183047  0.60484614  0.58526656    -0.47500
C1050       C  0.66484585  0.18994543  0.49790260     0.41600
N1051       N  0.72092857  0.21659596  0.51126635     0.00500
C1052       C  0.86833565  0.25401729  0.92333896    -0.07400
H1053       H  0.75522452  0.11698554  0.91642975     0.06000
C1054       C  0.77571795  0.10409789  0.53020522    -0.07800
Co1055     Co  0.77202252  0.23522334  0.96199930     0.74200
N1056       N  0.76807075  0.16643829  0.94064562    -0.26900
Co1057     Co  0.81721398  0.18593740  0.96567187     0.74100
C1058       C  0.76667748  0.08037338  0.00460052     0.41700
N1059       N  0.76127473  0.17013770  0.56313472     0.00100
N1060       N  0.79372142  0.13728378  0.99098653     0.00200
N1061       N  0.83561465  0.28305709  0.92496181    -0.47800
H1062       H  0.68066857  0.19512598  0.94942650     0.05900
N1063       N  0.75206158  0.18652654  0.94070517     0.00500
N1064       N  0.86530189  0.20725124  0.99172428     0.00200
C1065       C  0.92193968  0.23354952  0.50611426     0.41800
N1066       N  0.74542416  0.19004087  0.55933957    -0.26400
C1067       C  0.80895497  0.31867055  0.97310991    -0.07300
N1068       N  0.68707887  0.20178213  0.52128504    -0.47500
N1069       N  0.89980810  0.22229658  0.98233473    -0.47700
C1070       C  0.81789603  0.34184536  0.49883855     0.41600
N1071       N  0.82115891  0.25375519  0.94166371     0.00500
N1072       N  0.81431427  0.25722673  0.56044484    -0.26400
N1073       N  0.72234402  0.21564285  0.98278048    -0.26900
N1074       N  0.83236528  0.23948769  0.56445542     0.00100
H1075       H  0.81680112  0.30485773  0.57928351     0.06000
H1076       H  0.90441779  0.22903716  0.55424791     0.06000
N1077       N  0.83930444  0.23573590  0.94149837    -0.27000
N1078       N  0.79226971  0.13861681  0.51973804    -0.26600
N1079       N  0.79140708  0.28556930  0.51205464     0.00500
C1080       C  0.71848198  0.14336147  0.91106533     0.41900
C1081       C  0.71447622  0.17597185  0.57446507    -0.07800
N1082       N  0.86329887  0.20812217  0.52048695    -0.26600
H1083       H  0.77052166  0.09669742  0.55295751     0.06000
N1084       N  0.72325505  0.17403900  0.92363774    -0.47800
H1085       H  0.69724591  0.18813862  0.57637803     0.06000
C1086       C  0.85662930  0.28564247  0.59381772     0.41700
C1087       C  0.68812964  0.19961210  0.97217476    -0.07300
Co1088     Co  0.76794031  0.23762983  0.53590432     0.73800
N1089       N  0.74212647  0.14224628  0.58142448    -0.47500
C1090       C  0.86559699  0.28579539  0.91261449     0.42000
N1091       N  0.80571234  0.31940589  0.52220205    -0.47500
Co1092     Co  0.81288730  0.18846848  0.54260238     0.73900
C1093       C  0.89754630  0.22405151  0.53140033    -0.07800
C1094       C  0.74861287  0.13795197  0.92211087    -0.07400
N1095       N  0.79279082  0.28443856  0.98357814    -0.26900
N1096       N  0.77870177  0.10300134  0.98113170    -0.47700
H1097       H  0.88796112  0.24560258  0.91767076     0.06000
C1098       C  0.82783354  0.28662312  0.57743849    -0.07800
Cl1099     Cl  0.79269139  0.21166926  0.50156762    -0.50800
C1100       C  0.71174865  0.14415942  0.58879522     0.41700
H1101       H  0.81311228  0.32606621  0.95033293     0.05900
N1102       N  0.85817159  0.25554427  0.58487633    -0.47500
C1103       C  0.34261275  0.80796144  0.49619475     0.41600
N1104       N  0.28679251  0.78381356  0.50973311     0.00500
C1105       C  0.13876687  0.74781184  0.92322948    -0.07400
H1106       H  0.25380261  0.88468730  0.91527085     0.06000
C1107       C  0.23420943  0.89895730  0.52834136    -0.07800
Co1108     Co  0.23536078  0.76576148  0.96088263     0.74200
N1109       N  0.24027342  0.83491135  0.93930633    -0.26900
Co1110     Co  0.19164437  0.81650777  0.96444442     0.74100
C1111       C  0.24334641  0.92252128  0.00262364     0.41700
N1112       N  0.24866661  0.83281385  0.56144981     0.00100
N1113       N  0.21599014  0.86552551  0.98930074     0.00200
N1114       N  0.17078245  0.71805713  0.92489056    -0.47800
H1115       H  0.32661435  0.80266355  0.94768757     0.05900
N1116       N  0.25577402  0.81434861  0.93935440     0.00500
N1117       N  0.14412950  0.79619127  0.99068971     0.00200
C1118       C  0.08773787  0.77061522  0.50511285     0.41800
N1119       N  0.26404024  0.81249470  0.55755415    -0.26400
C1120       C  0.19705899  0.68235393  0.97285887    -0.07300
N1121       N  0.32053944  0.79736342  0.51963464    -0.47500
N1122       N  0.10968140  0.78130887  0.98130877    -0.47700
C1123       C  0.18792988  0.65959025  0.49886602     0.41600
N1124       N  0.18614650  0.74788197  0.94093823     0.00500
N1125       N  0.19453678  0.74591942  0.55996533    -0.26400
N1126       N  0.28521638  0.78441943  0.98123590    -0.26900
N1127       N  0.17689824  0.76408482  0.56382252     0.00100
H1128       H  0.19210780  0.69870553  0.57986295     0.06000
H1129       H  0.10522408  0.77534553  0.55328453     0.06000
N1130       N  0.16844915  0.76633351  0.94075687    -0.27000
N1131       N  0.21755159  0.86440343  0.51805756    -0.26600
N1132       N  0.21552206  0.71608705  0.51141953     0.00500
C1133       C  0.28964543  0.85737736  0.90983589     0.41900
C1134       C  0.29514723  0.82626137  0.57246011    -0.07800
N1135       N  0.14626360  0.79559902  0.51946310    -0.26600
H1136       H  0.23947253  0.90646763  0.55106281     0.06000
N1137       N  0.28453590  0.82650884  0.92232500    -0.47800
H1138       H  0.31186390  0.81352574  0.57430266     0.06000
C1139       C  0.15298567  0.71879272  0.59413802     0.41700
C1140       C  0.31929226  0.79890433  0.97048014    -0.07300
Co1141     Co  0.24029181  0.76434474  0.53476785     0.73800
N1142       N  0.26824958  0.86058863  0.57971976    -0.47500
C1143       C  0.14057421  0.71534834  0.91301577     0.42000
N1144       N  0.20071306  0.68239530  0.52195654    -0.47500
Co1145     Co  0.19677251  0.81484808  0.54134202     0.73900
C1146       C  0.11209423  0.78015477  0.53042604    -0.07800
C1147       C  0.25994090  0.86334046  0.92082501    -0.07400
N1148       N  0.21392808  0.71678100  0.98292368    -0.26900
N1149       N  0.23118376  0.89976934  0.97924344    -0.47700
H1150       H  0.11909909  0.75628751  0.91783718     0.06000
C1151       C  0.18126897  0.71708118  0.57763718    -0.07800
Cl1152     Cl  0.21589329  0.79052883  0.50038791    -0.50800
C1153       C  0.29844671  0.85822381  0.58699843     0.41700
H1154       H  0.19265644  0.67453512  0.95017703     0.05900
N1155       N  0.15154115  0.74879813  0.58467678    -0.47500
C1156       C  0.57755579  0.85683220  0.91006517     0.41600
N1157       N  0.59841939  0.83199867  0.93980586     0.00500
C1158       C  0.48913778  0.68679758  0.53056178    -0.07400
H1159       H  0.48951495  0.81168833  0.55233957     0.06000
C1160       C  0.61654351  0.86578710  0.58120176    -0.07800
Co1161     Co  0.53455085  0.76753256  0.96753280     0.74200
N1162       N  0.51181644  0.79184716  0.51961867    -0.26900
Co1163     Co  0.53913742  0.77001397  0.54157403     0.74100
C1164       C  0.58187584  0.86293320  0.59154301     0.41700
N1165       N  0.66122548  0.86296293  0.51375941     0.00100
N1166       N  0.56972159  0.81858079  0.56256597     0.00200
N1167       N  0.48666818  0.68635892  0.98137528    -0.47800
H1168       H  0.51809133  0.81742678  0.92381627     0.05900
N1169       N  0.51041428  0.79122756  0.99108737     0.00500
N1170       N  0.56706955  0.74914259  0.56316550     0.00200
C1171       C  0.57639791  0.71572344  0.59318878     0.41800
N1172       N  0.65929609  0.86160474  0.98494611    -0.26400
C1173       C  0.54227267  0.71436809  0.92881283    -0.07300
N1174       N  0.60886629  0.85790220  0.91932427    -0.47500
N1175       N  0.55048712  0.72023443  0.58022748    -0.47700
C1176       C  0.57115122  0.71122227  0.91465967     0.41600
N1177       N  0.50696046  0.72001532  0.99164682     0.00500
N1178       N  0.65707359  0.79039022  0.98552085    -0.26400
N1179       N  0.56252556  0.81428936  0.94345927    -0.26900
N1180       N  0.65909206  0.79129831  0.51431524     0.00100
H1181       H  0.67788273  0.76917044  0.95257576     0.06000
H1182       H  0.63962551  0.75280788  0.58842280     0.06000
N1183       N  0.50879136  0.72099437  0.52016149    -0.27000
N1184       N  0.60592269  0.83673053  0.56309360    -0.26600
N1185       N  0.59532204  0.76029028  0.94103293     0.00500
C1186       C  0.48055921  0.81773458  0.50355309     0.41900
C1187       C  0.67758762  0.89617230  0.97455863    -0.07800
N1188       N  0.60322693  0.76526536  0.56366549    -0.26600
H1189       H  0.64457718  0.88551182  0.58705870     0.06000
N1190       N  0.49165775  0.80603979  0.98050614    -0.47800
H1191       H  0.67986605  0.90366750  0.95182393     0.06000
C1192       C  0.68894509  0.76428973  0.50110641     0.41700
C1193       C  0.54730052  0.82820833  0.92621692    -0.07300
Co1194     Co  0.62881294  0.81164265  0.96218391     0.73800
N1195       N  0.67981037  0.89724802  0.52371349    -0.47500
C1196       C  0.47496819  0.66390520  0.50468395     0.42000
N1197       N  0.60378070  0.74107184  0.92265515    -0.47500
Co1198     Co  0.63370143  0.81465886  0.53924711     0.73900
C1199       C  0.61206152  0.74591188  0.58236177    -0.07800
C1200       C  0.49360151  0.80799765  0.52965086    -0.07400
N1201       N  0.55949919  0.74490745  0.94437745    -0.26900
N1202       N  0.55469850  0.83294592  0.57901058    -0.47700
H1203       H  0.48531895  0.67922440  0.55330738     0.06000
C1204       C  0.67513804  0.77396290  0.97530574    -0.07800
Cl1205     Cl  0.58433222  0.79105641  0.50261541    -0.50800
C1206       C  0.69120909  0.91990307  0.00028497     0.41700
H1207       H  0.51279321  0.69781070  0.92654798     0.05900
N1208       N  0.67782990  0.77590822  0.52444884    -0.47500
C1209       C  0.19221632  0.52834575  0.49855664     0.41600
N1210       N  0.21813599  0.49827681  0.51182037     0.00500
C1211       C  0.25660180  0.38915767  0.92381402    -0.07400
H1212       H  0.11738969  0.36332283  0.91860915     0.06000
C1213       C  0.10737989  0.33000583  0.53163108    -0.07800
Co1214     Co  0.23663038  0.46608987  0.96230956     0.74200
N1215       N  0.16774672  0.40041149  0.94172118    -0.26900
Co1216     Co  0.18826855  0.37132689  0.96639981     0.74100
C1217       C  0.08311643  0.31509611  0.00625961     0.41700
N1218       N  0.17318761  0.41143385  0.56431058     0.00100
N1219       N  0.13987482  0.34543112  0.99212018     0.00200
N1220       N  0.28454571  0.45102744  0.92470954    -0.47800
H1221       H  0.19727025  0.51781835  0.95004795     0.05900
N1222       N  0.18756933  0.43663695  0.94167199     0.00500
N1223       N  0.21059690  0.34540506  0.99227812     0.00200
C1224       C  0.23872254  0.31672611  0.50612008     0.41800
N1225       N  0.19263973  0.44725572  0.56013302    -0.26400
C1226       C  0.32024604  0.51384622  0.97310061    -0.07300
N1227       N  0.20394543  0.51780160  0.52190812    -0.47500
N1228       N  0.22623152  0.32670797  0.98260075    -0.47700
C1229       C  0.34333173  0.52803078  0.49891900     0.41600
N1230       N  0.25534596  0.43587916  0.94152596     0.00500
N1231       N  0.26032474  0.44694335  0.56085117    -0.26400
N1232       N  0.21703240  0.49590311  0.98333624    -0.26900
N1233       N  0.24330128  0.41110648  0.56500834     0.00100
H1234       H  0.30792411  0.49303481  0.57896249     0.06000
H1235       H  0.23513421  0.32984608  0.55435884     0.06000
N1236       N  0.23786581  0.39961386  0.94172878    -0.27000
N1237       N  0.14171024  0.34829356  0.52088086    -0.26600
N1238       N  0.28719153  0.49756740  0.51205533     0.00500
C1239       C  0.14315426  0.42657825  0.91329697     0.41900
C1240       C  0.17887692  0.46413555  0.57550940    -0.07800
N1241       N  0.21213244  0.34853799  0.52103897    -0.26600
H1242       H  0.10039352  0.32797387  0.55445559     0.06000
N1243       N  0.17417604  0.45272584  0.92533747    -0.47800
H1244       H  0.19105466  0.49362841  0.57721250     0.06000
C1245       C  0.29042630  0.43427169  0.59359993     0.41700
C1246       C  0.20137117  0.51440942  0.97279857    -0.07300
Co1247     Co  0.23976526  0.47280011  0.53629384     0.73800
N1248       N  0.14587751  0.40268570  0.58318520    -0.47500
C1249       C  0.28792145  0.42394586  0.91265657     0.42000
N1250       N  0.32091632  0.51726027  0.52221861    -0.47500
Co1251     Co  0.19194434  0.37856276  0.54346819     0.73900
C1252       C  0.22932766  0.33129581  0.53162515    -0.07800
C1253       C  0.13854251  0.39106858  0.92391021    -0.07400
N1254       N  0.28602860  0.49522818  0.98355808    -0.26900
N1255       N  0.10540306  0.32593196  0.98257584    -0.47700
H1256       H  0.24883340  0.36108633  0.91861471     0.06000
C1257       C  0.29007532  0.46358469  0.57744335    -0.07800
Cl1258     Cl  0.21400451  0.42188129  0.50214905    -0.50800
C1259       C  0.14774427  0.43505793  0.59055126     0.41700
H1260       H  0.32771991  0.51730384  0.95034072     0.05900
N1261       N  0.26044566  0.40207254  0.58501578    -0.47500
C1262       C  0.43421665  0.14830837  0.90918174     0.41600
N1263       N  0.41289704  0.17226090  0.93940472     0.00500
C1264       C  0.52061002  0.31548293  0.53251141    -0.07400
H1265       H  0.51949153  0.18966792  0.55289108     0.06000
C1266       C  0.39211965  0.13495651  0.58034068    -0.07800
Co1267     Co  0.47624177  0.23617797  0.96828950     0.74200
N1268       N  0.49807866  0.21054421  0.52019293    -0.26900
Co1269     Co  0.47037741  0.23171914  0.54223844     0.74100
C1270       C  0.42657236  0.13730060  0.59071779     0.41700
N1271       N  0.34876023  0.13968965  0.51284552     0.00100
N1272       N  0.43931265  0.18250277  0.56239543     0.00200
N1273       N  0.52359627  0.31700928  0.98335503    -0.47800
H1274       H  0.49354400  0.18771911  0.92349003     0.05900
N1275       N  0.50005260  0.21191344  0.99168424     0.00500
N1276       N  0.44221589  0.25198244  0.56396177     0.00200
C1277       C  0.43292052  0.28467549  0.59461004     0.41800
N1278       N  0.35133741  0.14158562  0.98407019    -0.26400
C1279       C  0.46889513  0.29011845  0.93015238    -0.07300
N1280       N  0.40275649  0.14679832  0.91860427    -0.47500
N1281       N  0.45876803  0.28028632  0.58152967    -0.47700
C1282       C  0.44012451  0.29295052  0.91548904     0.41600
N1283       N  0.50335401  0.28309855  0.99317120     0.00500
N1284       N  0.35316600  0.21275128  0.98542054    -0.26400
N1285       N  0.44877426  0.19006768  0.94326643    -0.26900
N1286       N  0.35095523  0.21142257  0.51421567     0.00100
H1287       H  0.33244965  0.23455978  0.95271677     0.06000
H1288       H  0.36967942  0.24822268  0.58923375     0.06000
N1289       N  0.50116693  0.28145102  0.52166794    -0.27000
N1290       N  0.40311031  0.16450992  0.56265440    -0.26600
N1291       N  0.41577268  0.24370193  0.94156895     0.00500
C1292       C  0.52932404  0.18478986  0.50414000     0.41900
C1293       C  0.33367518  0.10719791  0.97331940    -0.07800
N1294       N  0.40608080  0.23609605  0.56417463    -0.26600
H1295       H  0.36398211  0.11519983  0.58589548     0.06000
N1296       N  0.51885011  0.19717633  0.98109152    -0.47800
H1297       H  0.33204306  0.10013579  0.95053698     0.06000
C1298       C  0.32113099  0.23866432  0.50129855     0.41700
C1299       C  0.46429087  0.17676867  0.92568126    -0.07300
Co1300     Co  0.38200231  0.19199339  0.96196574     0.73800
N1301       N  0.33026347  0.10522494  0.52242522    -0.47500
C1302       C  0.53500085  0.33899026  0.50691873     0.42000
N1303       N  0.40748982  0.26282124  0.92294834    -0.47500
Co1304     Co  0.37586857  0.18735937  0.53898674     0.73900
C1305       C  0.39724144  0.25508488  0.58322423    -0.07800
C1306       C  0.51594862  0.19402021  0.53021746    -0.07400
N1307       N  0.45155037  0.25929816  0.94540779    -0.26900
N1308       N  0.45397473  0.16754165  0.57861773    -0.47700
H1309       H  0.52408164  0.32262219  0.55533811     0.06000
C1310       C  0.33503630  0.22928718  0.97538248    -0.07800
Cl1311     Cl  0.42581840  0.21170609  0.50283339    -0.50800
C1312       C  0.31968560  0.08299734  0.99878693     0.41700
H1313       H  0.49839437  0.30686773  0.92812119     0.05900
N1314       N  0.33222504  0.22673728  0.52449771    -0.47500
C1315       C  0.27524784  0.29103499  0.53038303    -0.14200
C1316       C  0.25950649  0.29639819  0.50510428     0.07900
C1317       C  0.26402917  0.28226410  0.47867507    -0.14200
C1318       C  0.28381287  0.26350340  0.47749130    -0.14200
C1319       C  0.29964555  0.25823116  0.50271712     0.07900
C1320       C  0.29495333  0.27214592  0.52921088    -0.14200
H1321       H  0.27259810  0.30162899  0.55113063     0.11900
H1322       H  0.25220565  0.28568053  0.45880502     0.11900
H1323       H  0.28651110  0.25295916  0.45673247     0.11900
H1324       H  0.30687895  0.26877449  0.54904265     0.11900
C1325       C  0.42985164  0.60578214  0.52889513    -0.14200
C1326       C  0.44654266  0.62515827  0.50331560     0.07900
C1327       C  0.43293725  0.60863934  0.47617156    -0.14200
C1328       C  0.40056576  0.57490048  0.47458712    -0.14200
C1329       C  0.38159951  0.55758639  0.50016574     0.07900
C1330       C  0.39749702  0.57210221  0.52731235    -0.14200
H1331       H  0.44024217  0.61753997  0.55012046     0.11900
H1332       H  0.44594307  0.62283505  0.45614706     0.11900
H1333       H  0.38928368  0.56385282  0.45337038     0.11900
H1334       H  0.38364434  0.55875077  0.54735116     0.11900
C1335       C  0.27267027  0.98242980  0.97485001    -0.14200
C1336       C  0.26280093  0.96359852  0.00159063     0.07900
C1337       C  0.27187077  0.98448044  0.52736917    -0.14200
C1338       C  0.29020349  0.02308156  0.52641333    -0.14200
C1339       C  0.30004552  0.04191961  0.99967017     0.07900
C1340       C  0.29109798  0.02106216  0.97389582    -0.14200
H1341       H  0.26625592  0.96727929  0.95459648     0.11900
H1342       H  0.26473273  0.97108271  0.54839438     0.11900
H1343       H  0.29670414  0.03820491  0.54668713     0.11900
H1344       H  0.29829110  0.03450958  0.95288948     0.11900
C1345       C  0.17140387  0.60079115  0.97415807    -0.14200
C1346       C  0.17877942  0.62119037  0.49992266     0.07900
C1347       C  0.18285572  0.60659914  0.52616543    -0.14200
C1348       C  0.18412707  0.57423578  0.52603121    -0.14200
C1349       C  0.18138425  0.55629851  0.49965016     0.07900
C1350       C  0.17278603  0.56843993  0.97401012    -0.14200
H1351       H  0.16702400  0.61092788  0.95377302     0.11900
H1352       H  0.18790416  0.62155842  0.54642024     0.11900
H1353       H  0.19000955  0.56486313  0.54621597     0.11900
H1354       H  0.16940534  0.55435465  0.95354764     0.11900
C1355       C  0.40202072  0.82420720  0.97247577    -0.14200
C1356       C  0.38167824  0.81978510  0.49778966     0.07900
C1357       C  0.39777626  0.82274883  0.52514326    -0.14200
C1358       C  0.43207684  0.82572634  0.52717824    -0.14200
C1359       C  0.45052976  0.82566123  0.50184385     0.07900
C1360       C  0.43642591  0.82722705  0.97451617    -0.14200
H1361       H  0.39052910  0.82292879  0.95114169     0.11900
H1362       H  0.38287224  0.82028387  0.54501989     0.11900
H1363       H  0.44265993  0.82531446  0.54854862     0.11900
H1364       H  0.45069031  0.82802635  0.95467186     0.11900
C1365       C  0.74124765  0.02075945  0.97689144    -0.14200
C1366       C  0.74766486  0.03930199  0.00360690     0.07900
C1367       C  0.73564750  0.01814026  0.52927280    -0.14200
C1368       C  0.71763667  0.97952696  0.52820501    -0.14200
C1369       C  0.71104324  0.96099259  0.00145315     0.07900
C1370       C  0.72317692  0.98216228  0.97582007    -0.14200
H1371       H  0.75015842  0.03611643  0.95671803     0.11900
H1372       H  0.74001530  0.03131974  0.55027112     0.11900
H1373       H  0.70861499  0.96414932  0.54836596     0.11900
H1374       H  0.71876776  0.96897475  0.95482025     0.11900
C1375       C  0.98315864  0.26328523  0.97956111    -0.14200
C1376       C  0.96320195  0.25369158  0.50584051     0.07900
C1377       C  0.98319408  0.26401657  0.53207259    -0.14200
C1378       C  0.02179750  0.28356891  0.53209693    -0.14200
C1379       C  0.04184732  0.29351708  0.50589325     0.07900
C1380       C  0.02193834  0.28292181  0.97958610    -0.14200
H1381       H  0.96878283  0.25582847  0.95892680     0.11900
H1382       H  0.96907993  0.25714003  0.55278361     0.11900
H1383       H  0.03586676  0.29096025  0.55283212     0.11900
H1384       H  0.03634800  0.29003527  0.95897323     0.11900
C1385       C  0.60925836  0.17488130  0.52637450    -0.14200
C1386       C  0.62581870  0.17826212  0.49919567     0.07900
C1387       C  0.60634148  0.17544931  0.97367412    -0.14200
C1388       C  0.57270799  0.17408853  0.97538854    -0.14200
C1389       C  0.55838266  0.17547685  0.50260445     0.07900
C1390       C  0.57562534  0.17347620  0.52808957    -0.14200
H1391       H  0.62348036  0.17606103  0.54636652     0.11900
H1392       H  0.61813269  0.17706689  0.95243113     0.11900
H1393       H  0.55935348  0.17476507  0.95542223     0.11900
H1394       H  0.56473196  0.17362492  0.54936982     0.11900
C1395       C  0.98822953  0.72412936  0.53081352    -0.14200
C1396       C  0.96832091  0.71052824  0.50475860     0.07900
C1397       C  0.98813979  0.71780400  0.97857175    -0.14200
C1398       C  0.02683832  0.73762901  0.97857060    -0.14200
C1399       C  0.04666107  0.75066118  0.50475593     0.07900
C1400       C  0.02676434  0.74386383  0.53081242    -0.14200
H1401       H  0.97410050  0.71953247  0.55139046     0.11900
H1402       H  0.97373584  0.70775493  0.95810972     0.11900
H1403       H  0.04125603  0.74233433  0.95809293     0.11900
H1404       H  0.04091759  0.75373211  0.55136580     0.11900
C1405       C  0.74352683  0.71851273  0.47757946    -0.14200
C1406       C  0.75216923  0.70841503  0.50433769     0.07900
C1407       C  0.73985851  0.71699916  0.53006101    -0.14200
C1408       C  0.71947492  0.73513614  0.52902716    -0.14200
C1409       C  0.71076221  0.74513983  0.50225354     0.07900
C1410       C  0.72309262  0.73657343  0.47654476    -0.14200
H1411       H  0.75249940  0.71236030  0.45734968     0.11900
H1412       H  0.74585819  0.70966951  0.55109675     0.11900
H1413       H  0.71039139  0.74119994  0.54924075     0.11900
H1414       H  0.71707030  0.74386107  0.45550117     0.11900
C1415       C  0.83045471  0.43184691  0.47338323    -0.14200
C1416       C  0.82479436  0.44543641  0.49952707     0.07900
C1417       C  0.82495258  0.42885777  0.52597280    -0.14200
C1418       C  0.82609640  0.39636121  0.52594582    -0.14200
C1419       C  0.82708547  0.38031435  0.49947203     0.07900
C1420       C  0.83163705  0.39942506  0.47335745    -0.14200
H1421       H  0.83160427  0.44477417  0.95273754     0.11900
H1422       H  0.82155128  0.43947744  0.54648598     0.11900
H1423       H  0.82346923  0.38248231  0.54643779     0.11900
H1424       H  0.83358205  0.38824126  0.45268325     0.11900
C1425       C  0.61177113  0.43137131  0.52983409    -0.14200
C1426       C  0.62710612  0.44650926  0.50263729     0.07900
C1427       C  0.60794357  0.42915913  0.47714631    -0.14200
C1428       C  0.57606651  0.39500408  0.47875219    -0.14200
C1429       C  0.56302727  0.37797826  0.50583925     0.07900
C1430       C  0.57984014  0.39720799  0.53144094    -0.14200
H1431       H  0.62576130  0.44468555  0.54983377     0.11900
H1432       H  0.61871757  0.44058417  0.45590284     0.11900
H1433       H  0.56298476  0.38094900  0.45871072     0.11900
H1434       H  0.56986770  0.38501456  0.55263145     0.11900
C1435       C  0.42883970  0.34421813  0.65517530    -0.14200
C1436       C  0.46638464  0.36559701  0.66274106     0.07900
C1437       C  0.49204399  0.36007787  0.64778334    -0.14200
C1438       C  0.48059866  0.33390973  0.62570421    -0.14200
C1439       C  0.44312063  0.31232668  0.61805396     0.07900
C1440       C  0.41726372  0.31769375  0.63303401    -0.14200
H1441       H  0.40834118  0.34793060  0.66643443     0.11900
H1442       H  0.52099130  0.37596911  0.65305523     0.11900
H1443       H  0.50145614  0.33057487  0.61465937     0.11900
H1444       H  0.38835634  0.30156851  0.62766356     0.11900
C1445       C  0.49325502  0.37583695  0.86733569    -0.14200
C1446       C  0.46843167  0.36896644  0.84478114     0.07900
C1447       C  0.43266829  0.33825143  0.84654846    -0.14200
C1448       C  0.42240036  0.31387224  0.87012721    -0.14200
C1449       C  0.44764691  0.32032668  0.89239859     0.07900
C1450       C  0.48279233  0.35211679  0.89109540    -0.14200
H1451       H  0.52059048  0.39975936  0.86678087     0.11900
H1452       H  0.41295166  0.33262606  0.82932678     0.11900
H1453       H  0.39532405  0.28958567  0.87050476     0.11900
H1454       H  0.50270530  0.35856898  0.90827572     0.11900
C1455       C  0.66254653  0.58465175  0.65078952    -0.14200
C1456       C  0.64450051  0.54929818  0.66360754     0.07900
C1457       C  0.65372985  0.52330959  0.65450378    -0.14200
C1458       C  0.67983449  0.53202995  0.63277860    -0.14200
C1459       C  0.69721241  0.56688440  0.61922954     0.07900
C1460       C  0.68880567  0.59341114  0.62877548    -0.14200
H1461       H  0.65612148  0.60546295  0.65740312     0.11900
H1462       H  0.64070903  0.49610622  0.66413016     0.11900
H1463       H  0.68618515  0.51102800  0.62662415     0.11900
H1464       H  0.70163507  0.62034150  0.61869646     0.11900
C1465       C  0.64624583  0.52443399  0.85896406    -0.14200
C1466       C  0.64431978  0.55151803  0.84279493     0.07900
C1467       C  0.66818852  0.58890858  0.84986590    -0.14200
C1468       C  0.69368816  0.59890868  0.87262019    -0.14200
C1469       C  0.69547819  0.57165388  0.88877065     0.07900
C1470       C  0.67127899  0.53433778  0.88176632    -0.14200
H1471       H  0.62818181  0.49555637  0.85415957     0.11900
H1472       H  0.66755944  0.61059722  0.83767299     0.11900
H1473       H  0.71194911  0.62772309  0.87744945     0.11900
H1474       H  0.67176329  0.51242164  0.89379816     0.11900
C1475       C  0.58146794  0.65769758  0.65474979    -0.14200
C1476       C  0.54385092  0.63489229  0.66152980     0.07900
C1477       C  0.51775005  0.63838092  0.64524819    -0.14200
C1478       C  0.52886165  0.66424397  0.62287956    -0.14200
C1479       C  0.56642287  0.68759045  0.61629502     0.07900
C1480       C  0.59268883  0.68394817  0.63237130    -0.14200
H1481       H  0.60230998  0.65552179  0.66696457     0.11900
H1482       H  0.48871564  0.62120341  0.64977500     0.11900
H1483       H  0.50771052  0.66611554  0.61087478     0.11900
H1484       H  0.62168598  0.70143453  0.62784122     0.11900
C1485       C  0.58000883  0.66230131  0.84834409    -0.14200
C1486       C  0.54364908  0.63271101  0.84570913     0.07900
C1487       C  0.51806048  0.62753212  0.86715318    -0.14200
C1488       C  0.52817425  0.65195931  0.89038439    -0.14200
C1489       C  0.56384563  0.68293915  0.89231006     0.07900
C1490       C  0.58999499  0.68746995  0.87138958    -0.14200
H1491       H  0.60042299  0.66658729  0.83210391     0.11900
H1492       H  0.49022511  0.60449793  0.86606049     0.11900
H1493       H  0.50747952  0.64666034  0.90659153     0.11900
H1494       H  0.61759950  0.71090483  0.87232720     0.11900
C1495       C  0.34910768  0.42074961  0.64984141    -0.14200
C1496       C  0.36900048  0.45626656  0.66213370     0.07900
C1497       C  0.36211108  0.48364442  0.65214899    -0.14200
C1498       C  0.33607281  0.47589741  0.63044372    -0.14200
C1499       C  0.31622536  0.44054603  0.61789996     0.07900
C1500       C  0.32280555  0.41291865  0.62798767    -0.14200
H1501       H  0.35377200  0.39892617  0.65702629     0.11900
H1502       H  0.37675119  0.51113061  0.66120990     0.11900
H1503       H  0.33148497  0.49791987  0.62375053     0.11900
H1504       H  0.30815145  0.38558569  0.61866765     0.11900
C1505       C  0.34101250  0.46935459  0.88289922    -0.14200
C1506       C  0.31618394  0.43219808  0.88995153     0.07900
C1507       C  0.31828820  0.40467004  0.87443322    -0.14200
C1508       C  0.34421895  0.41420957  0.85198968    -0.14200
C1509       C  0.36830370  0.45143592  0.84451243     0.07900
C1510       C  0.36649871  0.47881019  0.86039725    -0.14200
H1511       H  0.34047994  0.49146875  0.89453590     0.11900
H1512       H  0.29969220  0.37593883  0.87933523     0.11900
H1513       H  0.34483005  0.39228454  0.84018388     0.11900
H1514       H  0.38479185  0.50759934  0.85542092     0.11900
C1515       C  0.91642245  0.57538736  0.65831176    -0.14200
C1516       C  0.91005748  0.53912397  0.66018443     0.07900
C1517       C  0.89091092  0.51431369  0.63790586    -0.14200
C1518       C  0.87769118  0.52520179  0.61441252    -0.14200
C1519       C  0.88206888  0.56077255  0.61312503     0.07900
C1520       C  0.90221909  0.58607831  0.63504699    -0.14200
H1521       H  0.93158708  0.59519172  0.67524893     0.11900
H1522       H  0.88651932  0.48662622  0.63846126     0.11900
H1523       H  0.86341968  0.50519628  0.59744666     0.11900
H1524       H  0.90602588  0.61353656  0.63465595     0.11900
C1525       C  0.88257687  0.51459529  0.86224248    -0.14200
C1526       C  0.91078123  0.54041918  0.84458556     0.07900
C1527       C  0.92524713  0.57824053  0.85040660    -0.14200
C1528       C  0.91096683  0.58995785  0.87291265    -0.14200
C1529       C  0.88212706  0.56403055  0.89012090     0.07900
C1530       C  0.86858323  0.52623315  0.88478693    -0.14200
H1531       H  0.87113907  0.48541318  0.85857204     0.11900
H1532       H  0.94727870  0.59889261  0.83720715     0.11900
H1533       H  0.92197707  0.61909654  0.87647373     0.11900
H1534       H  0.84650535  0.50531706  0.89779306     0.11900
C1535       C  0.90944963  0.31654462  0.62903708    -0.14200
C1536       C  0.87507984  0.30961946  0.61914646     0.07900
C1537       C  0.85861406  0.32787722  0.63259815    -0.14200
C1538       C  0.87659474  0.35355091  0.65453283    -0.14200
C1539       C  0.91143494  0.36153827  0.66381855     0.07900
C1540       C  0.92758817  0.34243692  0.65119546    -0.14200
H1541       H  0.92267775  0.30285357  0.61909499     0.11900
H1542       H  0.83168134  0.32260865  0.62617475     0.11900
H1543       H  0.86325483  0.36737265  0.66406485     0.11900
H1544       H  0.95442298  0.34780050  0.65804708     0.11900
C1545       C  0.87523878  0.34037984  0.88437698    -0.14200
C1546       C  0.88505728  0.31328393  0.88944807     0.07900
C1547       C  0.91090576  0.31190027  0.87119168    -0.14200
C1548       C  0.92621353  0.33689229  0.84806835    -0.14200
C1549       C  0.91567546  0.36341090  0.84275984     0.07900
C1550       C  0.89010809  0.36490302  0.86117024    -0.14200
H1551       H  0.85549102  0.34241410  0.89818280     0.11900
H1552       H  0.91874178  0.29124653  0.87443143     0.11900
H1553       H  0.94581858  0.33495612  0.83405855     0.11900
H1554       H  0.88185470  0.38523993  0.85779351     0.11900
C1555       C  0.11639324  0.48795906  0.63729546    -0.14200
C1556       C  0.09869641  0.46364130  0.66022838     0.07900
C1557       C  0.09387341  0.42792663  0.65898464    -0.14200
C1558       C  0.10831472  0.41743699  0.63576689    -0.14200
C1559       C  0.12714731  0.44235070  0.61323340     0.07900
C1560       C  0.12986612  0.47723038  0.61386766    -0.14200
H1561       H  0.11952409  0.51515887  0.63733667     0.11900
H1562       H  0.07983966  0.40847895  0.67641543     0.11900
H1563       H  0.10581408  0.39051217  0.63591501     0.11900
H1564       H  0.14311695  0.49684482  0.59643682     0.11900
C1565       C  0.08359246  0.42307382  0.84958329    -0.14200
C1566       C  0.09684970  0.46095857  0.84490915     0.07900
C1567       C  0.12306828  0.48645529  0.86397915    -0.14200
C1568       C  0.13638410  0.47451922  0.88680924    -0.14200
C1569       C  0.12433953  0.43678000  0.89094099     0.07900
C1570       C  0.09733490  0.41106701  0.87234547    -0.14200
H1571       H  0.06306012  0.40266730  0.83524192     0.11900
H1572       H  0.13340803  0.51562406  0.86124137     0.11900
H1573       H  0.15694566  0.49525360  0.90093678     0.11900
H1574       H  0.08756651  0.38198883  0.87492296     0.11900
C1575       C  0.13431326  0.65286931  0.65637948    -0.14200
C1576       C  0.09820896  0.64232850  0.66407747     0.07900
C1577       C  0.08084653  0.65946226  0.65003590    -0.14200
C1578       C  0.09899575  0.68579824  0.62809522    -0.14200
C1579       C  0.13466382  0.69521693  0.61977532     0.07900
C1580       C  0.15231839  0.67901501  0.63461912    -0.14200
H1581       H  0.14861538  0.64067019  0.66701140     0.11900
H1582       H  0.05297579  0.65204920  0.65551003     0.11900
H1583       H  0.08473446  0.69768788  0.61694635     0.11900
H1584       H  0.18016001  0.68619399  0.62923606     0.11900
C1585       C  0.11411573  0.63440172  0.86349296    -0.14200
C1586       C  0.09017037  0.63705732  0.84397221     0.07900
C1587       C  0.08036456  0.66426682  0.84842597    -0.14200
C1588       C  0.09541016  0.68928497  0.87151858    -0.14200
C1589       C  0.12015926  0.68713477  0.89060080     0.07900
C1590       C  0.12863336  0.65889235  0.88670062    -0.14200
H1591       H  0.12155472  0.61335984  0.86085476     0.11900
H1592       H  0.06183767  0.66693131  0.83361148     0.11900
H1593       H  0.08856393  0.71076571  0.87391196     0.11900
H1594       H  0.14736425  0.65616329  0.90127559     0.11900
C1595       C  0.38011464  0.88670419  0.63651004    -0.14200
C1596       C  0.37409387  0.90623931  0.65825054     0.07900
C1597       C  0.34470584  0.91309825  0.65518630    -0.14200
C1598       C  0.32062238  0.89897023  0.63139195    -0.14200
C1599       C  0.32596496  0.87826384  0.61012194     0.07900
C1600       C  0.35671027  0.87339892  0.61252775    -0.14200
H1601       H  0.40302906  0.88186458  0.63794006     0.11900
H1602       H  0.33975309  0.92854134  0.67162659     0.11900
H1603       H  0.29733016  0.90322332  0.63012438     0.11900
H1604       H  0.36254016  0.85861261  0.59612645     0.11900
C1605       C  0.36980167  0.87779660  0.86108262    -0.14200
C1606       C  0.37155227  0.90519229  0.84289493     0.07900
C1607       C  0.34693540  0.91832242  0.84745731    -0.14200
C1608       C  0.32047092  0.90366609  0.86955661    -0.14200
C1609       C  0.31848349  0.87587546  0.88751405     0.07900
C1610       C  0.34371664  0.86345080  0.88322021    -0.14200
H1611       H  0.38854745  0.86746721  0.85826365     0.11900
H1612       H  0.34776327  0.93961530  0.83364533     0.11900
H1613       H  0.30135589  0.91356082  0.87225480     0.11900
H1614       H  0.34312533  0.84211511  0.89683245     0.11900
C1615       C  0.60110605  0.91098648  0.63084043    -0.14200
C1616       C  0.57363120  0.88257261  0.61430024     0.07900
C1617       C  0.53647762  0.87085965  0.62046385    -0.14200
C1618       C  0.52691020  0.88630910  0.64319929    -0.14200
C1619       C  0.55422814  0.91426341  0.66007294     0.07900
C1620       C  0.59147108  0.92684246  0.65349007    -0.14200
H1621       H  0.62980758  0.92049707  0.62660701     0.11900
H1622       H  0.51445452  0.84912339  0.60797610     0.11900
H1623       H  0.49813697  0.87640194  0.64754797     0.11900
H1624       H  0.61327830  0.94841830  0.66618894     0.11900
C1625       C  0.58821587  0.92834987  0.85450829    -0.14200
C1626       C  0.55409706  0.90946440  0.83990776     0.07900
C1627       C  0.52986994  0.87267230  0.84694252    -0.14200
C1628       C  0.53890378  0.85538019  0.86861519    -0.14200
C1629       C  0.57223368  0.87450218  0.88410983     0.07900
C1630       C  0.59725121  0.91094695  0.87644534    -0.14200
H1631       H  0.60761585  0.95683275  0.84954505     0.11900
H1632       H  0.50374727  0.85726141  0.83583784     0.11900
H1633       H  0.51924765  0.82693820  0.87353633     0.11900
H1634       H  0.62291671  0.92632891  0.88816013     0.11900
C1635       C  0.62727356  0.11149859  0.63537660    -0.14200
C1636       C  0.63455266  0.09448208  0.65843741     0.07900
C1637       C  0.66568388  0.09022459  0.65713744    -0.14200
C1638       C  0.69032000  0.10469171  0.63376604    -0.14200
C1639       C  0.68375401  0.12307252  0.61121711     0.07900
C1640       C  0.65131769  0.12515120  0.61181770    -0.14200
H1641       H  0.60296249  0.11413537  0.63550782     0.11900
H1642       H  0.67158440  0.07673624  0.67467964     0.11900
H1643       H  0.71503125  0.10277451  0.63388962     0.11900
H1644       H  0.64479202  0.13818982  0.59433799     0.11900
C1645       C  0.66492560  0.13771019  0.88352489    -0.14200
C1646       C  0.68974035  0.12486012  0.88847690     0.07900
C1647       C  0.68731588  0.09653394  0.87096784    -0.14200
C1648       C  0.66102558  0.08191776  0.84864722    -0.14200
C1649       C  0.63697015  0.09559738  0.84333924     0.07900
C1650       C  0.63903522  0.12341238  0.86116886    -0.14200
H1651       H  0.66574246  0.15941184  0.89675287     0.11900
H1652       H  0.70596652  0.08615869  0.87419207     0.11900
H1653       H  0.65992615  0.06023242  0.83522045     0.11900
H1654       H  0.62074385  0.13420265  0.85784848     0.11900
C1655       C  0.41645851  0.07254582  0.65236967    -0.14200
C1656       C  0.45367735  0.08570166  0.65955426     0.07900
C1657       C  0.48107223  0.11398792  0.64298317    -0.14200
C1658       C  0.47165442  0.12936115  0.62007994    -0.14200
C1659       C  0.43454108  0.11730794  0.61343002     0.07900
C1660       C  0.40694699  0.08837916  0.62954085    -0.14200
H1661       H  0.39457833  0.05059076  0.66475264     0.11900
H1662       H  0.50983045  0.12431851  0.64775640     0.11900
H1663       H  0.49379647  0.15143289  0.60792010     0.11900
H1664       H  0.37826376  0.07850000  0.62487066     0.11900
C1665       C  0.42114779  0.07625361  0.85302139    -0.14200
C1666       C  0.45592772  0.09351009  0.83936954     0.07900
C1667       C  0.48175191  0.12950723  0.84736893    -0.14200
C1668       C  0.47361376  0.14748936  0.86905713    -0.14200
C1669       C  0.43948383  0.12993800  0.88357882     0.07900
C1670       C  0.41295741  0.09438478  0.87491714    -0.14200
H1671       H  0.40046051  0.04848621  0.84726812     0.11900
H1672       H  0.50848600  0.14374761  0.83704369     0.11900
H1673       H  0.49451705  0.17524934  0.87462392     0.11900
H1674       H  0.38655797  0.08019317  0.88575153     0.11900
loop_ 
_geom_bond_atom_site_label_1 
_geom_bond_atom_site_label_2 
_geom_bond_distance 
_geom_bond_site_symmetry_2 
_ccdc_geom_bond_type 
C1           N19   1.359       .  A
C1           C38   1.454       .  S
C1          C829   1.484       .  S
N2           N19   1.329       .  A
N2           N24   1.319       .  A
N2          Co39   2.112       .  S
C3           N28   1.348       .  A
C3           C41   1.472       .  S
C3           H48   1.081       .  S
H4           C45   1.081       .  S
C5           N29   1.335       .  A
C5            C9   1.450       .  S
C5           H34   1.081       .  S
Co6          N24   2.065   1_565  S
Co6          N14   2.040       .  S
Co6          N46   2.048   1_565  S
Co6          N22   2.058       .  S
Co6         Cl50   2.429   1_565  S
N7           C45   1.349       .  A
N7           N14   1.320       .  A
N7           Co8   2.118       .  S
Co8          N11   2.114       .  S
Co8          N28   2.111       .  S
Co8          N15   2.117       .  S
Co8         Cl50   2.472   1_565  S
C9           N47   1.360       .  A
C9          C789   1.481       .  S
N10          N17   1.320       .  A
N10          N40   1.318       .  A
N10         Co43   2.045       .  S
N11          N29   1.319       .  A
N11          N47   1.329       .  A
N12          C41   1.341       .  A
N12          N22   1.320       .  A
H13          C38   1.081       .  S
N14          N35   1.316       .  A
N15          N33   1.319       .  A
N15          N20   1.330       .  A
C16          N20   1.360       .  A
C16          C44   1.447       .  S
C16         C782   1.477       .  S
N17          C32   1.350       .  A
N17         Co39   2.125       .  S
C18          N46   1.333       .  A
C18          C21   1.446       .  S
C18          H52   1.081       .  S
C21          N42   1.361       .  A
C21         C819   1.478       .  S
N22          N28   1.320       .  A
N23          C49   1.348       .  A
N23          N25   1.320       .  A
N23         Co39   2.110       .  S
N24          C38   1.338       .  A
N25          N53   1.319       .  A
N25         Co43   2.052       .  S
H26          C49   1.081       .  S
H27          C44   1.081       .  S
N29         Co43   2.057   1_565  S
N30          N42   1.330       .  A
N30          N46   1.319       .  A
N30         Co39   2.120       .  S
C31          N35   1.337       .  A
C31          C45   1.476       .  S
C31         C769   1.474       .  S
C32          C51   1.478       .  S
C32          H36   1.081       .  S
N33          C44   1.333       .  A
N33         Co43   2.052   1_565  S
C37          N53   1.339       .  A
C37          C49   1.471       .  S
C37         C799   1.472       .  S
Co39        Cl50   2.470       .  S
N40          C51   1.338       .  A
C41         C759   1.477       .  S
Co43        Cl50   2.429       .  S
C51         C812   1.479       .  S
C54          N72   1.361       .  A
C54          C91   1.443       .  S
C54         C749   1.474       .  S
N55          N72   1.330       .  A
N55          N77   1.319       .  A
N55         Co92   2.120       .  S
C56          N81   1.348       .  A
C56          C94   1.473       .  S
C56         H101   1.082       .  S
H57          C98   1.081       .  S
C58          N82   1.333       .  A
C58          C62   1.446       .  S
C58          H87   1.081       .  S
Co59         N77   2.045   1_655  S
Co59         N67   2.058       .  S
Co59         N99   2.063   1_655  S
Co59         N75   2.046       .  S
Co59       Cl103   2.431   1_655  S
N60          C98   1.350       .  A
N60          N67   1.320       .  A
N60         Co61   2.117       .  S
Co61         N64   2.117       .  S
Co61         N81   2.118       .  S
Co61         N68   2.110       .  S
Co61       Cl103   2.470   1_655  S
C62         N100   1.360       .  A
C62         C712   1.477       .  S
N63          N70   1.320       .  A
N63          N93   1.319       .  A
N63         Co96   2.051       .  S
N64          N82   1.319       .  A
N64         N100   1.330       .  A
N65          C94   1.339       .  A
N65          N75   1.319       .  A
H66          C91   1.081       .  S
N67          N88   1.319       .  A
N68          N86   1.319       .  A
N68          N73   1.327       .  A
C69          N73   1.358       .  A
C69          C97   1.451       .  S
C69         C702   1.477       .  S
N70          C85   1.351       .  A
N70         Co92   2.122       .  S
C71          N99   1.337       .  A
C71          C74   1.453       .  S
C71         H105   1.081       .  S
C74          N95   1.359       .  A
C74         C739   1.484       .  S
N75          N81   1.320       .  A
N76         C102   1.349       .  A
N76          N78   1.321       .  A
N76         Co92   2.122       .  S
N77          C91   1.331       .  A
N78         N106   1.320       .  A
N78         Co96   2.051       .  S
H79         C102   1.082       .  S
H80          C97   1.081       .  S
N82         Co96   2.052   1_655  S
N83          N95   1.329       .  A
N83          N99   1.320       .  A
N83         Co92   2.117       .  S
C84          N88   1.341       .  A
C84          C98   1.476       .  S
C84         C689   1.483       .  S
C85         C104   1.478       .  S
C85          H89   1.081       .  S
N86          C97   1.336       .  A
N86         Co96   2.056   1_655  S
C90         N106   1.339       .  A
C90         C102   1.474       .  S
C90         C719   1.476       .  S
Co92       Cl103   2.471       .  S
N93         C104   1.339       .  A
C94         C679   1.473       .  S
Co96       Cl103   2.432       .  S
C104        C729   1.482       .  S
C107        N125   1.362       .  A
C107        C144   1.450       .  S
C107        C672   1.486       .  S
N108        N125   1.331       .  A
N108        N130   1.319       .  A
N108       Co145   2.125       .  S
C109        N134   1.349       .  A
C109        C147   1.476       .  S
C109        H154   1.081       .  S
H110        C151   1.082       .  S
C111        N135   1.332       .  A
C111        C115   1.446       .  S
C111        H140   1.081       .  S
Co112       N130   2.059       .  S
Co112       N120   2.058       .  S
Co112       N152   2.065       .  S
Co112       N128   2.049       .  S
Co112      Cl156   2.431       .  S
N113        C151   1.346       .  A
N113        N120   1.321       .  A
N113       Co114   2.106       .  S
Co114       N117   2.121       .  S
Co114       N134   2.119       .  S
Co114       N121   2.111       .  S
Co114      Cl156   2.472       .  S
C115        N153   1.361       .  A
C115        C629   1.479       .  S
N116        N123   1.320       .  A
N116        N146   1.320       .  A
N116       Co149   2.056       .  S
N117        N135   1.319       .  A
N117        N153   1.331       .  A
N118        C147   1.339       .  A
N118        N128   1.319       .  A
H119        C144   1.081       .  S
N120        N141   1.319       .  A
N121        N139   1.319       .  A
N121        N126   1.328       .  A
C122        N126   1.359       .  A
C122        C150   1.449       .  S
C122        C619   1.479       .  S
N123        C138   1.347       .  A
N123       Co145   2.110       .  S
C124        N152   1.337       .  A
C124        C127   1.454       .  S
C124        H158   1.081       .  S
C127        N148   1.358       .  A
C127        C659   1.483       .  S
N128        N134   1.320       .  A
N129        C155   1.349       .  A
N129        N131   1.320       .  A
N129       Co145   2.121       .  S
N130        C144   1.335       .  A
N131        N159   1.319       .  A
N131       Co149   2.048       .  S
H132        C155   1.081       .  S
H133        C150   1.081       .  S
N135       Co149   2.048       .  S
N136        N148   1.328       .  A
N136        N152   1.319       .  A
N136       Co145   2.109       .  S
C137        N141   1.340       .  A
C137        C151   1.469       .  S
C137        C609   1.470       .  S
C138        C157   1.472       .  S
C138        H142   1.081       .  S
N139        C150   1.334       .  A
N139       Co149   2.055       .  S
C143        N159   1.340       .  A
C143        C155   1.476       .  S
C143        C639   1.481       .  S
Co145      Cl156   2.470       .  S
N146        C157   1.340       .  A
C147        C599   1.479       .  S
Co149      Cl156   2.430       .  S
C157        C649   1.475       .  S
C160        N178   1.347   1_556  A
C160        C579   1.461       .  S
C160       C1034   1.455       .  S
N161        N178   1.321       .  A
N161       N1020   1.311   1_554  A
N161       Co198   2.058       .  S
C162        N187   1.357       .  A
C162        C200   1.483       .  S
C162        H207   1.081       .  S
H163        C204   1.081       .  S
C164        N188   1.342       .  A
C164       C1005   1.464       .  S
C164        H193   1.081       .  S
Co165       N183   2.050       .  S
Co165       N173   2.039       .  S
Co165       N205   2.059       .  S
Co165       N181   2.027       .  S
Co165     Cl1046   2.429       .  S
N166        C204   1.358       .  A
N166        N173   1.319       .  A
N166       Co167   2.138       .  S
Co167       N170   2.119       .  S
Co167       N187   2.130       .  S
Co167       N174   2.121       .  S
Co167     Cl1046   2.465       .  S
C168        N206   1.357       .  A
C168       C1001   1.464       .  S
C168       C1396   1.496       .  S
N169        N176   1.317       .  A
N169        N199   1.336       .  A
N169       Co202   2.131       .  S
N170        N206   1.331       .  A
N170       N1025   1.325       .  A
N171        C200   1.334       .  A
N171        N181   1.311       .  A
H172        C197   1.080       .  S
N173        N194   1.313       .  A
N174        N179   1.330       .  A
N174       N1029   1.326       .  A
C175       N1016   1.356   1_554  A
C175        C203   1.465       .  S
C175        C569   1.496       .  S
N176        C191   1.322       .  A
N176       Co198   2.032       .  S
C177        N205   1.337       .  A
C177       C1017   1.460       .  S
C177        H211   1.081       .  S
N179       C1012   1.356       .  A
C180        N201   1.347       .  A
C180        C589   1.463       .  S
C180       C1014   1.460   1_554  S
N181        N187   1.318       .  A
N182        C208   1.323       .  A
N182        N184   1.317       .  A
N182       Co198   2.033       .  S
N183        C197   1.334       .  A
N183        N998   1.311       .  A
N184        N212   1.336       .  A
N184       Co202   2.128       .  S
H185        C208   1.081       .  S
H186        C203   1.081       .  S
N188       N1007   1.325   1_554  A
N188       Co202   2.104       .  S
N189        N201   1.319       .  A
N189       N1042   1.311   1_554  A
N189       Co198   2.053       .  S
C190        N194   1.335       .  A
C190        C204   1.486       .  S
C190        C692   1.486       .  S
C191        C210   1.441       .  S
C191        H195   1.080       .  S
N192        C203   1.344       .  A
N192       N1011   1.326   1_554  A
N192       Co202   2.107       .  S
C196        N212   1.365       .  A
C196        C208   1.442       .  S
C196        C622   1.481       .  S
C197        C997   1.455       .  S
Co198      Cl209   2.427       .  S
N199        C210   1.366       .  A
C200        C632   1.480       .  S
Co202      Cl209   2.465       .  S
N205       N1026   1.311       .  A
Cl209     Co1002   2.429   1_554  S
Cl209     Co1004   2.465   1_554  S
C210        C682   1.481       .  S
C213        N231   1.345   1_556  A
C213        C549   1.460       .  S
C213       C1087   1.457       .  S
N214        N231   1.319       .  A
N214       N1073   1.312   1_554  A
N214       Co251   2.054       .  S
C215        N240   1.355       .  A
C215        C253   1.481       .  S
C215        H260   1.081       .  S
H216        C257   1.081       .  S
C217        N241   1.344       .  A
C217       C1058   1.464       .  S
C217        H246   1.081       .  S
Co218       N236   2.058       .  S
Co218       N226   2.032       .  S
Co218       N258   2.053       .  S
Co218       N234   2.035       .  S
Co218     Cl1099   2.429       .  S
N219        C257   1.359       .  A
N219        N226   1.319       .  A
N219       Co220   2.137       .  S
Co220       N223   2.116       .  S
Co220       N240   2.126       .  S
Co220       N227   2.123       .  S
Co220     Cl1099   2.467       .  S
C221        N259   1.356       .  A
C221        C529   1.495       .  S
C221       C1054   1.464       .  S
N222        N229   1.318       .  A
N222        N252   1.334       .  A
N222       Co255   2.127       .  S
N223        N259   1.329       .  A
N223       N1078   1.325       .  A
N224        C253   1.335       .  A
N224        N234   1.312       .  A
H225        C250   1.080       .  S
N226        N247   1.312       .  A
N227        N232   1.332       .  A
N227       N1082   1.326       .  A
C228       N1069   1.357   1_554  A
C228        C256   1.467       .  S
C228        C539   1.502       .  S
N229        C244   1.325       .  A
N229       Co251   2.038       .  S
C230        N258   1.334       .  A
C230       C1070   1.457       .  S
C230        H264   1.080       .  S
N232       C1065   1.357       .  A
C233        N254   1.348   1_556  A
C233        C582   1.462       .  S
C233       C1067   1.457       .  S
N234        N240   1.319       .  A
N235        C261   1.325       .  A
N235        N237   1.318       .  A
N235       Co251   2.035       .  S
N236        C250   1.338       .  A
N236       N1051   1.312       .  A
N237        N265   1.334       .  A
N237       Co255   2.125       .  S
H238        C261   1.081       .  S
H239        C256   1.081       .  S
N241       N1060   1.325   1_554  A
N241       Co255   2.103       .  S
N242        N254   1.321       .  A
N242       N1095   1.312   1_554  A
N242       Co251   2.058       .  S
C243        N247   1.334       .  A
C243        C257   1.485       .  S
C243        C809   1.483       .  S
C244        C263   1.442       .  S
C244        H248   1.081       .  S
N245        C256   1.344       .  A
N245       N1064   1.326   1_554  A
N245       Co255   2.111       .  S
C249        N265   1.363       .  A
C249        C261   1.444       .  S
C249        C699   1.479       .  S
C250       C1050   1.457       .  S
Co251      Cl262   2.432       .  S
N252        C263   1.364       .  A
C253        C709   1.479       .  S
Co255      Cl262   2.461       .  S
N258       N1079   1.312       .  A
Cl262     Co1055   2.429   1_554  S
Cl262     Co1057   2.467   1_554  S
C263        C802   1.479       .  S
C266        N284   1.344   1_556  A
C266        C519   1.461       .  S
C266       C1140   1.459       .  S
N267        N284   1.317       .  A
N267       N1126   1.312   1_554  A
N267       Co304   2.053       .  S
C268        N293   1.356       .  A
C268        C306   1.481       .  S
C268        H313   1.081       .  S
H269        C310   1.081       .  S
C270        N294   1.343       .  A
C270       C1111   1.463       .  S
C270        H299   1.081       .  S
Co271       N289   2.059       .  S
Co271       N279   2.030       .  S
Co271       N311   2.052       .  S
Co271       N287   2.032       .  S
Co271     Cl1152   2.432       .  S
N272        C310   1.356       .  A
N272        N279   1.319       .  A
N272       Co273   2.129       .  S
Co273       N276   2.117       .  S
Co273       N293   2.126       .  S
Co273       N280   2.114       .  S
Co273     Cl1152   2.465       .  S
C274        N312   1.357       .  A
C274        C499   1.495       .  S
C274       C1107   1.463       .  S
N275        N282   1.318       .  A
N275        N305   1.335       .  A
N275       Co308   2.130       .  S
N276        N312   1.330       .  A
N276       N1131   1.325       .  A
N277        C306   1.335       .  A
N277        N287   1.312       .  A
H278        C303   1.081       .  S
N279        N300   1.311       .  A
N280        N285   1.330       .  A
N280       N1135   1.326       .  A
C281       N1122   1.355   1_554  A
C281        C309   1.466       .  S
C281        C562   1.495       .  S
N282        C297   1.325       .  A
N282       Co304   2.040       .  S
C283        N311   1.335       .  A
C283       C1123   1.456       .  S
C283        H317   1.081       .  S
N285       C1118   1.355       .  A
C286        N307   1.348   1_556  A
C286        C509   1.460       .  S
C286       C1120   1.456       .  S
N287        N293   1.318       .  A
N288        C314   1.326       .  A
N288        N290   1.318       .  A
N288       Co304   2.038       .  S
N289        C303   1.340       .  A
N289       N1104   1.312       .  A
N290        N318   1.335       .  A
N290       Co308   2.127       .  S
H291        C314   1.081       .  S
H292        C309   1.081       .  S
N294       N1113   1.325   1_554  A
N294       Co308   2.101       .  S
N295        N307   1.319       .  A
N295       N1148   1.312   1_554  A
N295       Co304   2.057       .  S
C296        N300   1.333       .  A
C296        C310   1.482       .  S
C296        C772   1.477       .  S
C297        C316   1.444       .  S
C297        H301   1.080       .  S
N298        C309   1.344       .  A
N298       N1117   1.326   1_554  A
N298       Co308   2.111       .  S
C302        N318   1.364       .  A
C302        C314   1.444       .  S
C302        C742   1.482       .  S
C303       C1103   1.459       .  S
Co304      Cl315   2.427       .  S
N305        C316   1.365       .  A
C306        C752   1.478       .  S
Co308      Cl315   2.463       .  S
N311       N1132   1.312       .  A
Cl315     Co1108   2.432   1_554  S
Cl315     Co1110   2.465   1_554  S
C316        C762   1.483       .  S
C319        N337   1.364       .  A
C319        C356   1.442       .  S
C319        C792   1.480       .  S
N320        N337   1.335       .  A
N320        N342   1.317       .  A
N320       Co357   2.126       .  S
C321        N346   1.336       .  A
C321        C359   1.456       .  S
C321        H366   1.081       .  S
H322        C363   1.081       .  S
C323        N347   1.355       .  A
C323        C327   1.481       .  S
C323        H352   1.081       .  S
Co324       N342   2.036       .  S
Co324       N332   2.053       .  S
Co324       N364   2.036       .  S
Co324       N340   2.057       .  S
Co324     Cl1205   2.426       .  S
N325        C363   1.336       .  A
N325       N1169   1.312   1_554  A
N325       Co326   2.059       .  S
Co326       N329   2.029       .  S
Co326       N346   2.050       .  S
Co326       N333   2.042       .  S
Co326      Cl368   2.433       .  S
C327        N365   1.335       .  A
C327        C779   1.478       .  S
N328        N358   1.329       .  A
N328       N1172   1.326   1_554  A
N328       Co361   2.114       .  S
N329        N347   1.318       .  A
N329        N365   1.312       .  A
N330       C1196   1.346       .  A
N330        N340   1.319       .  A
H331        C356   1.081       .  S
N332        N353   1.319       .  A
N332       N1162   1.312       .  A
N333        N351   1.319       .  A
N333        N338   1.313       .  A
C334        N338   1.337       .  A
C334        C362   1.482       .  S
C334        C642   1.484       .  S
N335        C350   1.344       .  A
N335       N1165   1.326       .  A
N335       Co357   2.109       .  S
C336        N364   1.323       .  A
C336        C339   1.443       .  S
C336        H370   1.080       .  S
C339        N360   1.366       .  A
C339        C652   1.482       .  S
N340       N1183   1.312       .  A
N341        C367   1.343       .  A
N341       N1180   1.325       .  A
N341       Co357   2.104       .  S
N342        C356   1.325       .  A
N343        N371   1.330       .  A
N343       N1178   1.325   1_554  A
N343       Co361   2.116       .  S
H344        C367   1.081       .  S
H345        C362   1.081       .  S
N346       N1177   1.312   1_554  A
N347       Co361   2.127       .  S
N348        N360   1.335       .  A
N348        N364   1.318       .  A
N348       Co357   2.130       .  S
C349       N1190   1.347   1_554  A
C349        C363   1.460       .  S
C349        C522   1.462       .  S
C350        C369   1.466       .  S
C350        H354   1.081       .  S
N351        C362   1.356       .  A
N351       Co361   2.130       .  S
N353       C1186   1.347       .  A
C355        N371   1.356       .  A
C355        C572   1.496       .  S
C355       C1204   1.464   1_554  S
Co357     Cl1205   2.466       .  S
N358       C1206   1.355       .  A
C359       N1167   1.346   1_554  A
C359        C489   1.460       .  S
Co361      Cl368   2.462       .  S
C367       C1192   1.464       .  S
Cl368     Co1161   2.426   1_554  S
Cl368     Co1194   2.466   1_554  S
C369       N1195   1.355       .  A
C369        C532   1.495       .  S
C372        N390   1.345   1_556  A
C372        C512   1.459       .  S
C372       C1246   1.457       .  S
N373        N390   1.319       .  A
N373       N1232   1.312   1_554  A
N373       Co410   2.053       .  S
C374        N399   1.357       .  A
C374        C412   1.484       .  S
C374        H419   1.081       .  S
H375        C416   1.081       .  S
C376        N400   1.344       .  A
C376       C1217   1.467       .  S
C376        H405   1.081       .  S
Co377       N395   2.056       .  S
Co377       N385   2.032       .  S
Co377       N417   2.054       .  S
Co377       N393   2.038       .  S
Co377     Cl1258   2.435       .  S
N378        C416   1.360       .  A
N378        N385   1.319       .  A
N378       Co379   2.141       .  S
Co379       N382   2.122       .  S
Co379       N399   2.136       .  S
Co379       N386   2.123       .  S
Co379     Cl1258   2.466       .  S
C380        N418   1.358       .  A
C380       C1213   1.467       .  S
C380       C1379   1.503       .  S
N381        N388   1.318       .  A
N381        N411   1.336       .  A
N381       Co414   2.133       .  S
N382        N418   1.332       .  A
N382       N1237   1.326       .  A
N383        C412   1.337       .  A
N383        N393   1.314       .  A
H384        C409   1.080       .  S
N385        N406   1.311       .  A
N386        N391   1.330       .  A
N386       N1241   1.326       .  A
C387       N1228   1.356   1_554  A
C387        C415   1.466       .  S
C387        C479   1.500       .  S
N388        C403   1.324       .  A
N388       Co410   2.037       .  S
C389        N417   1.336       .  A
C389       C1229   1.458       .  S
C389        H423   1.081       .  S
N391       C1224   1.356       .  A
C392        N413   1.346   1_556  A
C392        C492   1.460   1_556  S
C392       C1226   1.458       .  S
N393        N399   1.319       .  A
N394        C420   1.326       .  A
N394        N396   1.317       .  A
N394       Co410   2.036       .  S
N395        C409   1.337       .  A
N395       N1210   1.312       .  A
N396        N424   1.335       .  A
N396       Co414   2.134       .  S
H397        C420   1.081       .  S
H398        C415   1.081       .  S
N400       N1219   1.326   1_554  A
N400       Co414   2.113       .  S
N401        N413   1.318       .  A
N401       N1254   1.312   1_554  A
N401       Co410   2.055       .  S
C402        N406   1.333       .  A
C402        C416   1.487       .  S
C402        C732   1.485       .  S
C403        C422   1.442       .  S
C403        H407   1.081       .  S
N404        C415   1.346       .  A
N404       N1223   1.326   1_554  A
N404       Co414   2.112       .  S
C408        N424   1.365       .  A
C408        C420   1.444       .  S
C408        C662   1.485       .  S
C409       C1209   1.457       .  S
Co410      Cl421   2.427       .  S
N411        C422   1.366       .  A
C412        C669   1.487       .  S
Co414      Cl421   2.466       .  S
N417       N1238   1.312       .  A
Cl421     Co1214   2.435   1_554  S
Cl421     Co1216   2.466   1_554  S
C422        C722   1.484       .  S
C425        N443   1.364       .  A
C425        C462   1.445       .  S
C425        C832   1.485       .  S
N426        N443   1.336       .  A
N426        N448   1.318       .  A
N426       Co463   2.131       .  S
C427        N452   1.338       .  A
C427        C465   1.457       .  S
C427        H472   1.081       .  S
H428        C469   1.081       .  S
C429        N453   1.356       .  A
C429        C433   1.482       .  S
C429        H458   1.081       .  S
Co430       N448   2.041       .  S
Co430       N438   2.055       .  S
Co430       N470   2.035       .  S
Co430       N446   2.059       .  S
Co430     Cl1311   2.427       .  S
N431        C469   1.336       .  A
N431       N1275   1.312   1_554  A
N431       Co432   2.055       .  S
Co432       N435   2.032       .  S
Co432       N452   2.054       .  S
Co432       N439   2.036       .  S
Co432      Cl474   2.432       .  S
C433        N471   1.335       .  A
C433        C822   1.479       .  S
N434        N464   1.329       .  A
N434       N1278   1.326   1_554  A
N434       Co467   2.113       .  S
N435        N453   1.318       .  A
N435        N471   1.312       .  A
N436       C1302   1.346       .  A
N436        N446   1.319       .  A
H437        C462   1.081       .  S
N438        N459   1.319       .  A
N438       N1268   1.312       .  A
N439        N457   1.319       .  A
N439        N444   1.312       .  A
C440        N444   1.335       .  A
C440        C468   1.483       .  S
C440        C602   1.482       .  S
N441        C456   1.345       .  A
N441       N1271   1.326       .  A
N441       Co463   2.107       .  S
C442        N470   1.323       .  A
C442        C445   1.442       .  S
C442        H476   1.081       .  S
C445        N466   1.364       .  A
C445        C612   1.477       .  S
N446       N1289   1.312       .  A
N447        C473   1.345       .  A
N447       N1286   1.326       .  A
N447       Co463   2.113       .  S
N448        C462   1.327       .  A
N449        N477   1.331       .  A
N449       N1284   1.326   1_554  A
N449       Co467   2.116       .  S
H450        C473   1.081       .  S
H451        C468   1.081       .  S
N452       N1283   1.312   1_554  A
N453       Co467   2.127       .  S
N454        N466   1.334       .  A
N454        N470   1.318       .  A
N454       Co463   2.125       .  S
C455       N1296   1.347   1_554  A
C455        C469   1.458       .  S
C455        C552   1.461       .  S
C456        C475   1.466       .  S
C456        H460   1.081       .  S
N457        C468   1.357       .  A
N457       Co467   2.131       .  S
N459       C1292   1.347       .  A
C461        N477   1.356       .  A
C461        C482   1.499       .  S
C461       C1310   1.466   1_554  S
Co463     Cl1311   2.465       .  S
N464       C1312   1.354   1_554  A
C465       N1273   1.346   1_554  A
C465        C592   1.462       .  S
Co467      Cl474   2.463       .  S
C473       C1298   1.466       .  S
Cl474     Co1267   2.427   1_554  S
Cl474     Co1300   2.465   1_554  S
C475       N1301   1.354       .  A
C475        C502   1.494       .  S
C478        H484   1.082       .  S
C478        C479   1.410       .  A
C478        C483   1.408       .  A
C479        C480   1.407   1_554  A
C480        H485   1.083       .  S
C480        C481   1.407       .  A
C481        H486   1.082       .  S
C481        C482   1.408   1_556  A
C482        C483   1.407       .  A
C483        H487   1.083       .  S
C488        H494   1.082       .  S
C488        C489   1.401       .  A
C488        C493   1.388       .  A
C489        C490   1.402   1_554  A
C490        H495   1.083       .  S
C490        C491   1.390       .  A
C491        H496   1.082       .  S
C491        C492   1.402   1_556  A
C492        C493   1.402       .  A
C493        H497   1.083       .  S
C498        H504   1.083       .  S
C498        C499   1.406       .  A
C498        C503   1.405   1_565  A
C499       C1337   1.409       .  A
C500        H505   1.082       .  S
C500        C501   1.404   1_565  A
C500       C1336   1.409       .  A
C501        H506   1.083       .  S
C501       C1339   1.406   1_554  A
C502        C503   1.408       .  A
C502       C1338   1.406       .  A
C503        H507   1.082       .  S
C508        H514   1.082       .  S
C508        C513   1.390       .  A
C508       C1346   1.403       .  A
C509        C510   1.401   1_556  A
C509       C1345   1.403       .  A
C510        H515   1.083       .  S
C510        C511   1.388       .  A
C511        H516   1.083       .  S
C511        C512   1.402   1_554  A
C512       C1350   1.401       .  A
C513        H517   1.082       .  S
C513       C1349   1.401       .  A
C518        H524   1.082       .  S
C518        C523   1.392       .  A
C518       C1356   1.401       .  A
C519        C520   1.403   1_556  A
C519       C1355   1.401       .  A
C520        H525   1.083       .  S
C520        C521   1.388       .  A
C521        H526   1.082       .  S
C521        C522   1.401       .  A
C522       C1360   1.404   1_554  A
C523        H527   1.083       .  S
C523       C1359   1.404       .  A
C528        H534   1.083       .  S
C528        C529   1.406       .  A
C528        C533   1.405   1_545  A
C529       C1367   1.409       .  A
C530        H535   1.082       .  S
C530        C531   1.406   1_545  A
C530       C1366   1.409       .  A
C531        H536   1.083       .  S
C531       C1369   1.407       .  A
C532        C533   1.408       .  A
C532       C1368   1.407       .  A
C533        H537   1.082       .  S
C538        H544   1.083       .  S
C538        C543   1.411   1_655  A
C538       C1376   1.409       .  A
C539        C540   1.408       .  A
C539       C1375   1.409   1_554  A
C540        H545   1.082       .  S
C540        C541   1.405   1_655  A
C541        H546   1.082       .  S
C541        C542   1.408       .  A
C542       C1217   1.503       .  S
C542       C1380   1.409   1_554  A
C543        H547   1.083       .  S
C543       C1379   1.409       .  A
C548        H554   1.083       .  S
C548        C549   1.403   1_554  A
C548        C553   1.389       .  A
C549       C1387   1.401       .  A
C550        H555   1.082       .  S
C550        C551   1.390       .  A
C550       C1386   1.401       .  A
C551        H556   1.083       .  S
C551       C1389   1.403       .  A
C552        C553   1.402       .  A
C552       C1388   1.403   1_554  A
C553        H557   1.082       .  S
C558        H564   1.082       .  S
C558        C559   1.407       .  A
C558        C563   1.403   1_655  A
C559       C1005   1.496       .  S
C559       C1397   1.408   1_554  A
C560        H565   1.083       .  S
C560        C561   1.409   1_655  A
C560       C1396   1.408       .  A
C561        H566   1.083       .  S
C561       C1399   1.409       .  A
C562        C563   1.406       .  A
C562       C1398   1.409   1_554  A
C563        H567   1.082       .  S
C568        H574   1.083       .  S
C568        C569   1.406   1_556  A
C568        C573   1.405       .  A
C569        C570   1.409       .  A
C570        H575   1.082       .  S
C570        C571   1.406       .  A
C571        H576   1.083       .  S
C571        C572   1.406       .  A
C572        C573   1.409   1_554  A
C573        H577   1.082       .  S
C578       H1421   1.082       .  S
C578        C579   1.402       .  A
C578        C583   1.389       .  A
C579        C580   1.402   1_556  A
C580        H585   1.083       .  S
C580        C581   1.391       .  A
C581        H586   1.083       .  S
C581        C582   1.402   1_554  A
C582        C583   1.402       .  A
C583        H587   1.082       .  S
H584       C1415   1.082       .  S
C588        H594   1.083       .  S
C588        C589   1.404       .  A
C588        C593   1.391       .  A
C589        C590   1.401   1_554  A
C590        H595   1.082       .  S
C590        C591   1.390       .  A
C591        H596   1.083       .  S
C591        C592   1.402   1_556  A
C592        C593   1.401       .  A
C593        H597   1.082       .  S
C598        H604   1.083       .  S
C598        C599   1.414       .  A
C598        C603   1.404       .  A
C599        C600   1.395       .  A
C600        H605   1.082       .  S
C600        C601   1.393       .  A
C601        H606   1.083       .  S
C601        C602   1.413       .  A
C602        C603   1.399       .  A
C603        H607   1.083       .  S
C608        H614   1.083       .  S
C608        C609   1.395       .  A
C608        C613   1.392       .  A
C609        C610   1.410       .  A
C610        H615   1.083       .  S
C610        C611   1.401       .  A
C611        H616   1.083       .  S
C611        C612   1.400       .  A
C612        C613   1.411       .  A
C613        H617   1.082       .  S
C618        H624   1.081       .  S
C618        C619   1.413       .  A
C618        C623   1.404       .  A
C619        C620   1.395       .  A
C620        H625   1.083       .  S
C620        C621   1.391       .  A
C621        H626   1.081       .  S
C621        C622   1.411       .  A
C622        C623   1.400       .  A
C623        H627   1.083       .  S
C628        H634   1.083       .  S
C628        C629   1.395       .  A
C628        C633   1.393       .  A
C629        C630   1.414       .  A
C630        H635   1.081       .  S
C630        C631   1.403       .  A
C631        H636   1.083       .  S
C631        C632   1.398       .  A
C632        C633   1.413       .  A
C633        H637   1.083       .  S
C638        H644   1.083       .  S
C638        C639   1.414       .  A
C638        C643   1.405       .  A
C639        C640   1.396       .  A
C640        H645   1.082       .  S
C640        C641   1.395       .  A
C641        H646   1.083       .  S
C641        C642   1.413       .  A
C642        C643   1.400       .  A
C643        H647   1.083       .  S
C648        H654   1.083       .  S
C648        C649   1.411       .  A
C648        C653   1.404       .  A
C649        C650   1.394       .  A
C650        H655   1.083       .  S
C650        C651   1.392       .  A
C651        H656   1.081       .  S
C651        C652   1.412       .  A
C652        C653   1.401       .  A
C653        H657   1.083       .  S
C658        H664   1.081       .  S
C658        C659   1.412       .  A
C658        C663   1.405       .  A
C659        C660   1.398       .  A
C660        H665   1.083       .  S
C660        C661   1.394       .  A
C661        H666   1.081       .  S
C661        C662   1.412       .  A
C662        C663   1.401       .  A
C663        H667   1.083       .  S
C668        H674   1.083       .  S
C668        C669   1.413       .  A
C668        C673   1.397       .  A
C669        C670   1.400       .  A
C670        H675   1.083       .  S
C670        C671   1.406       .  A
C671        H676   1.081       .  S
C671        C672   1.414       .  A
C672        C673   1.397       .  A
C673        H677   1.083       .  S
C678        H684   1.083       .  S
C678        C679   1.412       .  A
C678        C683   1.404       .  A
C679        C680   1.393       .  A
C680        H685   1.083       .  S
C680        C681   1.392       .  A
C681        H686   1.081       .  S
C681        C682   1.413       .  A
C682        C683   1.400       .  A
C683        H687   1.083       .  S
C688        H694   1.083       .  S
C688        C689   1.397       .  A
C688        C693   1.397       .  A
C689        C690   1.414       .  A
C690        H695   1.083       .  S
C690        C691   1.405       .  A
C691        H696   1.083       .  S
C691        C692   1.399       .  A
C692        C693   1.414       .  A
C693        H697   1.083       .  S
C698        H704   1.083       .  S
C698        C699   1.400       .  A
C698        C703   1.404       .  A
C699        C700   1.410       .  A
C700        H705   1.081       .  S
C700        C701   1.391       .  A
C701        H706   1.083       .  S
C701        C702   1.396       .  A
C702        C703   1.412       .  A
C703        H707   1.081       .  S
C708        H714   1.083       .  S
C708        C709   1.412       .  A
C708        C713   1.394       .  A
C709        C710   1.399       .  A
C710        H715   1.083       .  S
C710        C711   1.402       .  A
C711        H716   1.082       .  S
C711        C712   1.412       .  A
C712        C713   1.395       .  A
C713        H717   1.083       .  S
C718        H724   1.083       .  S
C718        C719   1.394       .  A
C718        C723   1.394       .  A
C719        C720   1.412       .  A
C720        H725   1.083       .  S
C720        C721   1.405       .  A
C721        H726   1.083       .  S
C721        C722   1.401       .  A
C722        C723   1.413       .  A
C723        H727   1.082       .  S
C728        H734   1.083       .  S
C728        C729   1.414       .  A
C728        C733   1.405       .  A
C729        C730   1.395       .  A
C730        H735   1.083       .  S
C730        C731   1.395       .  A
C731        H736   1.083       .  S
C731        C732   1.415       .  A
C732        C733   1.399       .  A
C733        H737   1.083       .  S
C738        H744   1.083       .  S
C738        C739   1.398       .  A
C738        C743   1.394       .  A
C739        C740   1.413       .  A
C740        H745   1.081       .  S
C740        C741   1.405       .  A
C741        H746   1.083       .  S
C741        C742   1.400       .  A
C742        C743   1.410       .  A
C743        H747   1.082       .  S
C748        H754   1.083       .  S
C748        C749   1.394       .  A
C748        C753   1.393       .  A
C749        C750   1.413       .  A
C750        H755   1.082       .  S
C750        C751   1.402       .  A
C751        H756   1.083       .  S
C751        C752   1.398       .  A
C752        C753   1.412       .  A
C753        H757   1.083       .  S
C758        H764   1.083       .  S
C758        C759   1.396       .  A
C758        C763   1.394       .  A
C759        C760   1.411       .  A
C760        H765   1.083       .  S
C760        C761   1.404       .  A
C761        H766   1.083       .  S
C761        C762   1.401       .  A
C762        C763   1.412       .  A
C763        H767   1.081       .  S
C768        H774   1.083       .  S
C768        C769   1.394       .  A
C768        C773   1.393       .  A
C769        C770   1.413       .  A
C770        H775   1.083       .  S
C770        C771   1.401       .  A
C771        H776   1.083       .  S
C771        C772   1.397       .  A
C772        C773   1.413       .  A
C773        H777   1.083       .  S
C778        H784   1.083       .  S
C778        C779   1.398       .  A
C778        C783   1.402       .  A
C779        C780   1.412       .  A
C780        H785   1.083       .  S
C780        C781   1.393       .  A
C781        H786   1.083       .  S
C781        C782   1.395       .  A
C782        C783   1.413       .  A
C783        H787   1.081       .  S
C788        H794   1.082       .  S
C788        C789   1.413       .  A
C788        C793   1.405       .  A
C789        C790   1.397       .  A
C790        H795   1.083       .  S
C790        C791   1.393       .  A
C791        H796   1.082       .  S
C791        C792   1.410       .  A
C792        C793   1.400       .  A
C793        H797   1.083       .  S
C798        H804   1.083       .  S
C798        C799   1.395       .  A
C798        C803   1.394       .  A
C799        C800   1.410       .  A
C800        H805   1.083       .  S
C800        C801   1.402       .  A
C801        H806   1.083       .  S
C801        C802   1.400       .  A
C802        C803   1.412       .  A
C803        H807   1.082       .  S
C808        H814   1.083       .  S
C808        C809   1.414       .  A
C808        C813   1.395       .  A
C809        C810   1.398       .  A
C810        H815   1.083       .  S
C810        C811   1.404       .  A
C811        H816   1.083       .  S
C811        C812   1.414       .  A
C812        C813   1.395       .  A
C813        H817   1.083       .  S
C818        H824   1.081       .  S
C818        C819   1.414       .  A
C818        C823   1.403       .  A
C819        C820   1.395       .  A
C820        H825   1.083       .  S
C820        C821   1.392       .  A
C821        H826   1.083       .  S
C821        C822   1.412       .  A
C822        C823   1.399       .  A
C823        H827   1.083       .  S
C828        H834   1.082       .  S
C828        C829   1.413       .  A
C828        C833   1.406       .  A
C829        C830   1.398       .  A
C830        H835   1.083       .  S
C830        C831   1.394       .  A
C831        H836   1.082       .  S
C831        C832   1.410       .  A
C832        C833   1.401       .  A
C833        H837   1.083       .  S
C838        N856   1.359       .  A
C838        C875   1.454       .  S
C838       C1666   1.484       .  S
N839        N856   1.329       .  A
N839        N861   1.319       .  A
N839       Co876   2.112       .  S
C840        N865   1.348       .  A
C840        C878   1.472       .  S
C840        H885   1.081       .  S
H841        C882   1.081       .  S
C842        N866   1.335       .  A
C842        C846   1.450       .  S
C842        H871   1.081       .  S
Co843       N861   2.065   1_565  S
Co843       N851   2.040       .  S
Co843       N883   2.048   1_565  S
Co843       N859   2.058       .  S
Co843      Cl887   2.429   1_565  S
N844        C882   1.349       .  A
N844        N851   1.320       .  A
N844       Co845   2.118       .  S
Co845       N848   2.114       .  S
Co845       N865   2.111       .  S
Co845       N852   2.117       .  S
Co845      Cl887   2.472   1_565  S
C846        N884   1.360       .  A
C846       C1626   1.481       .  S
N847        N854   1.320       .  A
N847        N877   1.318       .  A
N847       Co880   2.045       .  S
N848        N866   1.319       .  A
N848        N884   1.329       .  A
N849        C878   1.341       .  A
N849        N859   1.320       .  A
H850        C875   1.081       .  S
N851        N872   1.316       .  A
N852        N870   1.319       .  A
N852        N857   1.330       .  A
C853        N857   1.360       .  A
C853        C881   1.447       .  S
C853       C1619   1.477       .  S
N854        C869   1.350       .  A
N854       Co876   2.125       .  S
C855        N883   1.333       .  A
C855        C858   1.446       .  S
C855        H889   1.081       .  S
C858        N879   1.361       .  A
C858       C1656   1.478       .  S
N859        N865   1.320       .  A
N860        C886   1.348       .  A
N860        N862   1.320       .  A
N860       Co876   2.110       .  S
N861        C875   1.338       .  A
N862        N890   1.319       .  A
N862       Co880   2.052       .  S
H863        C886   1.081       .  S
H864        C881   1.081       .  S
N866       Co880   2.057   1_565  S
N867        N879   1.330       .  A
N867        N883   1.319       .  A
N867       Co876   2.120       .  S
C868        N872   1.337       .  A
C868        C882   1.476       .  S
C868       C1606   1.474       .  S
C869        C888   1.478       .  S
C869        H873   1.081       .  S
N870        C881   1.333       .  A
N870       Co880   2.052   1_565  S
C874        N890   1.339       .  A
C874        C886   1.471       .  S
C874       C1636   1.472       .  S
Co876      Cl887   2.470       .  S
N877        C888   1.338       .  A
C878       C1596   1.477       .  S
Co880      Cl887   2.429       .  S
C888       C1649   1.479       .  S
C891        N909   1.361       .  A
C891        C928   1.443       .  S
C891       C1586   1.474       .  S
N892        N909   1.330       .  A
N892        N914   1.319       .  A
N892       Co929   2.120       .  S
C893        N918   1.348       .  A
C893        C931   1.473       .  S
C893        H938   1.082       .  S
H894        C935   1.081       .  S
C895        N919   1.333       .  A
C895        C899   1.446       .  S
C895        H924   1.081       .  S
Co896       N914   2.045   1_655  S
Co896       N904   2.058       .  S
Co896       N936   2.063   1_655  S
Co896       N912   2.046       .  S
Co896      Cl940   2.431   1_655  S
N897        C935   1.350       .  A
N897        N904   1.320       .  A
N897       Co898   2.117       .  S
Co898       N901   2.117       .  S
Co898       N918   2.118       .  S
Co898       N905   2.110       .  S
Co898      Cl940   2.470   1_655  S
C899        N937   1.360       .  A
C899       C1549   1.477       .  S
N900        N907   1.320       .  A
N900        N930   1.319       .  A
N900       Co933   2.051       .  S
N901        N919   1.319       .  A
N901        N937   1.330       .  A
N902        C931   1.339       .  A
N902        N912   1.319       .  A
H903        C928   1.081       .  S
N904        N925   1.319       .  A
N905        N923   1.319       .  A
N905        N910   1.327       .  A
C906        N910   1.358       .  A
C906        C934   1.451       .  S
C906       C1539   1.477       .  S
N907        C922   1.351       .  A
N907       Co929   2.122       .  S
C908        N936   1.337       .  A
C908        C911   1.453       .  S
C908        H942   1.081       .  S
C911        N932   1.359       .  A
C911       C1576   1.484       .  S
N912        N918   1.320       .  A
N913        C939   1.349       .  A
N913        N915   1.321       .  A
N913       Co929   2.122       .  S
N914        C928   1.331       .  A
N915        N943   1.320       .  A
N915       Co933   2.051       .  S
H916        C939   1.082       .  S
H917        C934   1.081       .  S
N919       Co933   2.052   1_655  S
N920        N932   1.329       .  A
N920        N936   1.320       .  A
N920       Co929   2.117       .  S
C921        N925   1.341       .  A
C921        C935   1.476       .  S
C921       C1526   1.483       .  S
C922        C941   1.478       .  S
C922        H926   1.081       .  S
N923        C934   1.336       .  A
N923       Co933   2.056   1_655  S
C927        N943   1.339       .  A
C927        C939   1.474       .  S
C927       C1556   1.476       .  S
Co929      Cl940   2.471       .  S
N930        C941   1.339       .  A
C931       C1516   1.473       .  S
Co933      Cl940   2.432       .  S
C941       C1566   1.482       .  S
C944        N962   1.362       .  A
C944        C981   1.450       .  S
C944       C1509   1.486       .  S
N945        N962   1.331       .  A
N945        N967   1.319       .  A
N945       Co982   2.125       .  S
C946        N971   1.349       .  A
C946        C984   1.476       .  S
C946        H991   1.081       .  S
H947        C988   1.082       .  S
C948        N972   1.332       .  A
C948        C952   1.446       .  S
C948        H977   1.081       .  S
Co949       N967   2.059       .  S
Co949       N957   2.058       .  S
Co949       N989   2.065       .  S
Co949       N965   2.049       .  S
Co949      Cl993   2.431       .  S
N950        C988   1.346       .  A
N950        N957   1.321       .  A
N950       Co951   2.106       .  S
Co951       N954   2.121       .  S
Co951       N971   2.119       .  S
Co951       N958   2.111       .  S
Co951      Cl993   2.472       .  S
C952        N990   1.361       .  A
C952       C1466   1.479       .  S
N953        N960   1.320       .  A
N953        N983   1.320       .  A
N953       Co986   2.056       .  S
N954        N972   1.319       .  A
N954        N990   1.331       .  A
N955        C984   1.339       .  A
N955        N965   1.319       .  A
H956        C981   1.081       .  S
N957        N978   1.319       .  A
N958        N976   1.319       .  A
N958        N963   1.328       .  A
C959        N963   1.359       .  A
C959        C987   1.449       .  S
C959       C1456   1.479       .  S
N960        C975   1.347       .  A
N960       Co982   2.110       .  S
C961        N989   1.337       .  A
C961        C964   1.454       .  S
C961        H995   1.081       .  S
C964        N985   1.358       .  A
C964       C1496   1.483       .  S
N965        N971   1.320       .  A
N966        C992   1.349       .  A
N966        N968   1.320       .  A
N966       Co982   2.121       .  S
N967        C981   1.335       .  A
N968        N996   1.319       .  A
N968       Co986   2.048       .  S
H969        C992   1.081       .  S
H970        C987   1.081       .  S
N972       Co986   2.048       .  S
N973        N985   1.328       .  A
N973        N989   1.319       .  A
N973       Co982   2.109       .  S
C974        N978   1.340       .  A
C974        C988   1.469       .  S
C974       C1446   1.470       .  S
C975        C994   1.472       .  S
C975        H979   1.081       .  S
N976        C987   1.334       .  A
N976       Co986   2.055       .  S
C980        N996   1.340       .  A
C980        C992   1.476       .  S
C980       C1476   1.481       .  S
Co982      Cl993   2.470       .  S
N983        C994   1.340       .  A
C984       C1436   1.479       .  S
Co986      Cl993   2.430       .  S
C994       C1486   1.475       .  S
C997       N1015   1.347       .  A
C997       C1416   1.461       .  S
N998       N1015   1.321       .  A
N998      Co1035   2.058       .  S
C999       N1024   1.357       .  A
C999       C1037   1.483       .  S
C999       H1044   1.081       .  S
H1000      C1041   1.081       .  S
C1001      N1025   1.342       .  A
C1001      H1030   1.081       .  S
Co1002     N1020   2.050       .  S
Co1002     N1010   2.039       .  S
Co1002     N1042   2.059       .  S
Co1002     N1018   2.027       .  S
N1003      C1041   1.358       .  A
N1003      N1010   1.319       .  A
N1003     Co1004   2.138       .  S
Co1004     N1007   2.119       .  S
Co1004     N1024   2.130       .  S
Co1004     N1011   2.121       .  S
C1005      N1043   1.357   1_554  A
N1006      N1013   1.317       .  A
N1006      N1036   1.336       .  A
N1006     Co1039   2.131       .  S
N1007      N1043   1.331       .  A
N1008      C1037   1.334       .  A
N1008      N1018   1.311       .  A
H1009      C1034   1.080       .  S
N1010      N1031   1.313       .  A
N1011      N1016   1.330       .  A
C1012      C1040   1.465       .  S
C1012      C1406   1.496       .  S
N1013      C1028   1.322       .  A
N1013     Co1035   2.032       .  S
C1014      N1042   1.337       .  A
C1014      H1048   1.081       .  S
C1017      N1038   1.347       .  A
C1017      C1426   1.463       .  S
N1018      N1024   1.318       .  A
N1019      C1045   1.323       .  A
N1019      N1021   1.317       .  A
N1019     Co1035   2.033       .  S
N1020      C1034   1.334       .  A
N1021      N1049   1.336       .  A
N1021     Co1039   2.128       .  S
H1022      C1045   1.081       .  S
H1023      C1040   1.081       .  S
N1025     Co1039   2.104       .  S
N1026      N1038   1.319       .  A
N1026     Co1035   2.053       .  S
C1027      N1031   1.335       .  A
C1027      C1041   1.486       .  S
C1027      C1529   1.486       .  S
C1028      C1047   1.441       .  S
C1028      H1032   1.080       .  S
N1029      C1040   1.344       .  A
N1029     Co1039   2.107       .  S
C1033      N1049   1.365       .  A
C1033      C1045   1.442       .  S
C1033      C1459   1.481       .  S
Co1035    Cl1046   2.427       .  S
N1036      C1047   1.366       .  A
C1037      C1469   1.480       .  S
Co1039    Cl1046   2.465       .  S
C1047      C1519   1.481       .  S
C1050      N1068   1.345       .  A
C1050      C1386   1.460       .  S
N1051      N1068   1.319       .  A
N1051     Co1088   2.054       .  S
C1052      N1077   1.355       .  A
C1052      C1090   1.481       .  S
C1052      H1097   1.081       .  S
H1053      C1094   1.081       .  S
C1054      N1078   1.344       .  A
C1054      H1083   1.081       .  S
Co1055     N1073   2.058       .  S
Co1055     N1063   2.032       .  S
Co1055     N1095   2.053       .  S
Co1055     N1071   2.035       .  S
N1056      C1094   1.359       .  A
N1056      N1063   1.319       .  A
N1056     Co1057   2.137       .  S
Co1057     N1060   2.116       .  S
Co1057     N1077   2.126       .  S
Co1057     N1064   2.123       .  S
C1058      N1096   1.356   1_554  A
C1058      C1366   1.495       .  S
N1059      N1066   1.318       .  A
N1059      N1089   1.334       .  A
N1059     Co1092   2.127       .  S
N1060      N1096   1.329       .  A
N1061      C1090   1.335       .  A
N1061      N1071   1.312       .  A
H1062      C1087   1.080       .  S
N1063      N1084   1.312       .  A
N1064      N1069   1.332       .  A
C1065      C1093   1.467       .  S
C1065      C1376   1.502       .  S
N1066      C1081   1.325       .  A
N1066     Co1088   2.038       .  S
C1067      N1095   1.334       .  A
C1067      H1101   1.080       .  S
C1070      N1091   1.348       .  A
C1070      C1419   1.462       .  S
N1071      N1077   1.319       .  A
N1072      C1098   1.325       .  A
N1072      N1074   1.318       .  A
N1072     Co1088   2.035       .  S
N1073      C1087   1.338       .  A
N1074      N1102   1.334       .  A
N1074     Co1092   2.125       .  S
H1075      C1098   1.081       .  S
H1076      C1093   1.081       .  S
N1078     Co1092   2.104       .  S
N1079      N1091   1.321       .  A
N1079     Co1088   2.058       .  S
C1080      N1084   1.334       .  A
C1080      C1094   1.485       .  S
C1080      C1646   1.483       .  S
C1081      C1100   1.442       .  S
C1081      H1085   1.081       .  S
N1082      C1093   1.344       .  A
N1082     Co1092   2.111       .  S
C1086      N1102   1.363       .  A
C1086      C1098   1.444       .  S
C1086      C1536   1.479       .  S
Co1088    Cl1099   2.432       .  S
N1089      C1100   1.364       .  A
C1090      C1546   1.479       .  S
Co1092    Cl1099   2.461       .  S
C1100      C1639   1.479       .  S
C1103      N1121   1.344       .  A
C1103      C1356   1.461       .  S
N1104      N1121   1.317       .  A
N1104     Co1141   2.053       .  S
C1105      N1130   1.356       .  A
C1105      C1143   1.481       .  S
C1105      H1150   1.081       .  S
H1106      C1147   1.081       .  S
C1107      N1131   1.343       .  A
C1107      H1136   1.081       .  S
Co1108     N1126   2.059       .  S
Co1108     N1116   2.030       .  S
Co1108     N1148   2.052       .  S
Co1108     N1124   2.032       .  S
N1109      C1147   1.356       .  A
N1109      N1116   1.319       .  A
N1109     Co1110   2.129       .  S
Co1110     N1113   2.117       .  S
Co1110     N1130   2.126       .  S
Co1110     N1117   2.114       .  S
C1111      N1149   1.357   1_554  A
C1111      C1336   1.495       .  S
N1112      N1119   1.318       .  A
N1112      N1142   1.335       .  A
N1112     Co1145   2.130       .  S
N1113      N1149   1.330       .  A
N1114      C1143   1.335       .  A
N1114      N1124   1.312       .  A
H1115      C1140   1.081       .  S
N1116      N1137   1.311       .  A
N1117      N1122   1.330       .  A
C1118      C1146   1.466       .  S
C1118      C1399   1.495       .  S
N1119      C1134   1.325       .  A
N1119     Co1141   2.040       .  S
C1120      N1148   1.335       .  A
C1120      H1154   1.081       .  S
C1123      N1144   1.348       .  A
C1123      C1346   1.460       .  S
N1124      N1130   1.318       .  A
N1125      C1151   1.326       .  A
N1125      N1127   1.318       .  A
N1125     Co1141   2.038       .  S
N1126      C1140   1.340       .  A
N1127      N1155   1.335       .  A
N1127     Co1145   2.127       .  S
H1128      C1151   1.081       .  S
H1129      C1146   1.081       .  S
N1131     Co1145   2.101       .  S
N1132      N1144   1.319       .  A
N1132     Co1141   2.057       .  S
C1133      N1137   1.333       .  A
C1133      C1147   1.482       .  S
C1133      C1609   1.477       .  S
C1134      C1153   1.444       .  S
C1134      H1138   1.080       .  S
N1135      C1146   1.344       .  A
N1135     Co1145   2.111       .  S
C1139      N1155   1.364       .  A
C1139      C1151   1.444       .  S
C1139      C1579   1.482       .  S
Co1141    Cl1152   2.427       .  S
N1142      C1153   1.365       .  A
C1143      C1589   1.478       .  S
Co1145    Cl1152   2.463       .  S
C1153      C1599   1.483       .  S
C1156      N1174   1.364       .  A
C1156      C1193   1.442       .  S
C1156      C1629   1.480       .  S
N1157      N1174   1.335       .  A
N1157      N1179   1.317       .  A
N1157     Co1194   2.126       .  S
C1158      N1183   1.336       .  A
C1158      C1196   1.456       .  S
C1158      H1203   1.081       .  S
H1159      C1200   1.081       .  S
C1160      N1184   1.355       .  A
C1160      C1164   1.481       .  S
C1160      H1189   1.081       .  S
Co1161     N1179   2.036       .  S
Co1161     N1169   2.053       .  S
Co1161     N1201   2.036       .  S
Co1161     N1177   2.057       .  S
N1162      C1200   1.336       .  A
N1162     Co1163   2.059       .  S
Co1163     N1166   2.029       .  S
Co1163     N1183   2.050       .  S
Co1163     N1170   2.042       .  S
Co1163    Cl1205   2.433       .  S
C1164      N1202   1.335       .  A
C1164      C1616   1.478       .  S
N1165      N1195   1.329       .  A
N1165     Co1198   2.114       .  S
N1166      N1184   1.318       .  A
N1166      N1202   1.312       .  A
N1167      N1177   1.319       .  A
H1168      C1193   1.081       .  S
N1169      N1190   1.319       .  A
N1170      N1188   1.319       .  A
N1170      N1175   1.313       .  A
C1171      N1175   1.337       .  A
C1171      C1199   1.482       .  S
C1171      C1479   1.484       .  S
N1172      C1187   1.344       .  A
N1172     Co1194   2.109       .  S
C1173      N1201   1.323       .  A
C1173      C1176   1.443       .  S
C1173      H1207   1.080       .  S
C1176      N1197   1.366       .  A
C1176      C1489   1.482       .  S
N1178      C1204   1.343       .  A
N1178     Co1194   2.104       .  S
N1179      C1193   1.325       .  A
N1180      N1208   1.330       .  A
N1180     Co1198   2.116       .  S
H1181      C1204   1.081       .  S
H1182      C1199   1.081       .  S
N1184     Co1198   2.127       .  S
N1185      N1197   1.335       .  A
N1185      N1201   1.318       .  A
N1185     Co1194   2.130       .  S
C1186      C1200   1.460       .  S
C1186      C1359   1.462       .  S
C1187      C1206   1.466   1_556  S
C1187      H1191   1.081       .  S
N1188      C1199   1.356       .  A
N1188     Co1198   2.130       .  S
C1192      N1208   1.356       .  A
C1192      C1409   1.496       .  S
C1196      C1326   1.460       .  S
Co1198    Cl1205   2.462       .  S
C1206      C1369   1.495       .  S
C1209      N1227   1.345       .  A
C1209      C1349   1.459       .  S
N1210      N1227   1.319       .  A
N1210     Co1247   2.053       .  S
C1211      N1236   1.357       .  A
C1211      C1249   1.484       .  S
C1211      H1256   1.081       .  S
H1212      C1253   1.081       .  S
C1213      N1237   1.344       .  A
C1213      H1242   1.081       .  S
Co1214     N1232   2.056       .  S
Co1214     N1222   2.032       .  S
Co1214     N1254   2.054       .  S
Co1214     N1230   2.038       .  S
N1215      C1253   1.360       .  A
N1215      N1222   1.319       .  A
N1215     Co1216   2.141       .  S
Co1216     N1219   2.122       .  S
Co1216     N1236   2.136       .  S
Co1216     N1223   2.123       .  S
C1217      N1255   1.358   1_554  A
N1218      N1225   1.318       .  A
N1218      N1248   1.336       .  A
N1218     Co1251   2.133       .  S
N1219      N1255   1.332       .  A
N1220      C1249   1.337       .  A
N1220      N1230   1.314       .  A
H1221      C1246   1.080       .  S
N1222      N1243   1.311       .  A
N1223      N1228   1.330       .  A
C1224      C1252   1.466       .  S
C1224      C1316   1.500       .  S
N1225      C1240   1.324       .  A
N1225     Co1247   2.037       .  S
C1226      N1254   1.336       .  A
C1226      H1260   1.081       .  S
C1229      N1250   1.346       .  A
C1229      C1329   1.460       .  S
N1230      N1236   1.319       .  A
N1231      C1257   1.326       .  A
N1231      N1233   1.317       .  A
N1231     Co1247   2.036       .  S
N1232      C1246   1.337       .  A
N1233      N1261   1.335       .  A
N1233     Co1251   2.134       .  S
H1234      C1257   1.081       .  S
H1235      C1252   1.081       .  S
N1237     Co1251   2.113       .  S
N1238      N1250   1.318       .  A
N1238     Co1247   2.055       .  S
C1239      N1243   1.333       .  A
C1239      C1253   1.487       .  S
C1239      C1569   1.485       .  S
C1240      C1259   1.442       .  S
C1240      H1244   1.081       .  S
N1241      C1252   1.346       .  A
N1241     Co1251   2.112       .  S
C1245      N1261   1.365       .  A
C1245      C1257   1.444       .  S
C1245      C1499   1.485       .  S
Co1247    Cl1258   2.427       .  S
N1248      C1259   1.366       .  A
C1249      C1506   1.487       .  S
Co1251    Cl1258   2.466       .  S
C1259      C1559   1.484       .  S
C1262      N1280   1.364       .  A
C1262      C1299   1.445       .  S
C1262      C1669   1.485       .  S
N1263      N1280   1.336       .  A
N1263      N1285   1.318       .  A
N1263     Co1300   2.131       .  S
C1264      N1289   1.338       .  A
C1264      C1302   1.457       .  S
C1264      H1309   1.081       .  S
H1265      C1306   1.081       .  S
C1266      N1290   1.356       .  A
C1266      C1270   1.482       .  S
C1266      H1295   1.081       .  S
Co1267     N1285   2.041       .  S
Co1267     N1275   2.055       .  S
Co1267     N1307   2.035       .  S
Co1267     N1283   2.059       .  S
N1268      C1306   1.336       .  A
N1268     Co1269   2.055       .  S
Co1269     N1272   2.032       .  S
Co1269     N1289   2.054       .  S
Co1269     N1276   2.036       .  S
Co1269    Cl1311   2.432       .  S
C1270      N1308   1.335       .  A
C1270      C1659   1.479       .  S
N1271      N1301   1.329       .  A
N1271     Co1304   2.113       .  S
N1272      N1290   1.318       .  A
N1272      N1308   1.312       .  A
N1273      N1283   1.319       .  A
H1274      C1299   1.081       .  S
N1275      N1296   1.319       .  A
N1276      N1294   1.319       .  A
N1276      N1281   1.312       .  A
C1277      N1281   1.335       .  A
C1277      C1305   1.483       .  S
C1277      C1439   1.482       .  S
N1278      C1293   1.345       .  A
N1278     Co1300   2.107       .  S
C1279      N1307   1.323       .  A
C1279      C1282   1.442       .  S
C1279      H1313   1.081       .  S
C1282      N1303   1.364       .  A
C1282      C1449   1.477       .  S
N1284      C1310   1.345       .  A
N1284     Co1300   2.113       .  S
N1285      C1299   1.327       .  A
N1286      N1314   1.331       .  A
N1286     Co1304   2.116       .  S
H1287      C1310   1.081       .  S
H1288      C1305   1.081       .  S
N1290     Co1304   2.127       .  S
N1291      N1303   1.334       .  A
N1291      N1307   1.318       .  A
N1291     Co1300   2.125       .  S
C1292      C1306   1.458       .  S
C1292      C1389   1.461       .  S
C1293      C1312   1.466       .  S
C1293      H1297   1.081       .  S
N1294      C1305   1.357       .  A
N1294     Co1304   2.131       .  S
C1298      N1314   1.356       .  A
C1298      C1319   1.499       .  S
C1302      C1429   1.462       .  S
Co1304    Cl1311   2.463       .  S
C1312      C1339   1.494       .  S
C1315      H1321   1.082       .  S
C1315      C1316   1.410       .  A
C1315      C1320   1.408       .  A
C1316      C1317   1.407       .  A
C1317      H1322   1.083       .  S
C1317      C1318   1.407       .  A
C1318      H1323   1.082       .  S
C1318      C1319   1.408       .  A
C1319      C1320   1.407       .  A
C1320      H1324   1.083       .  S
C1325      H1331   1.082       .  S
C1325      C1326   1.401       .  A
C1325      C1330   1.388       .  A
C1326      C1327   1.402       .  A
C1327      H1332   1.083       .  S
C1327      C1328   1.390       .  A
C1328      H1333   1.082       .  S
C1328      C1329   1.402       .  A
C1329      C1330   1.402       .  A
C1330      H1334   1.083       .  S
C1335      H1341   1.083       .  S
C1335      C1336   1.406   1_556  A
C1335      C1340   1.405   1_565  A
C1337      H1342   1.082       .  S
C1337      C1338   1.404   1_565  A
C1338      H1343   1.083       .  S
C1339      C1340   1.408       .  A
C1340      H1344   1.082       .  S
C1345      H1351   1.082       .  S
C1345      C1350   1.390       .  A
C1346      C1347   1.401       .  A
C1347      H1352   1.083       .  S
C1347      C1348   1.388       .  A
C1348      H1353   1.083       .  S
C1348      C1349   1.402       .  A
C1350      H1354   1.082       .  S
C1355      H1361   1.082       .  S
C1355      C1360   1.392       .  A
C1356      C1357   1.403       .  A
C1357      H1362   1.083       .  S
C1357      C1358   1.388       .  A
C1358      H1363   1.082       .  S
C1358      C1359   1.401       .  A
C1360      H1364   1.083       .  S
C1365      H1371   1.083       .  S
C1365      C1366   1.406   1_556  A
C1365      C1370   1.405   1_545  A
C1367      H1372   1.082       .  S
C1367      C1368   1.406   1_545  A
C1368      H1373   1.083       .  S
C1369      C1370   1.408   1_554  A
C1370      H1374   1.082       .  S
C1375      H1381   1.083       .  S
C1375      C1380   1.411   1_655  A
C1376      C1377   1.408       .  A
C1377      H1382   1.082       .  S
C1377      C1378   1.405   1_655  A
C1378      H1383   1.082       .  S
C1378      C1379   1.408       .  A
C1380      H1384   1.083       .  S
C1385      H1391   1.083       .  S
C1385      C1386   1.403       .  A
C1385      C1390   1.389       .  A
C1387      H1392   1.082       .  S
C1387      C1388   1.390       .  A
C1388      H1393   1.083       .  S
C1389      C1390   1.402       .  A
C1390      H1394   1.082       .  S
C1395      H1401   1.082       .  S
C1395      C1396   1.407       .  A
C1395      C1400   1.403   1_655  A
C1397      H1402   1.083       .  S
C1397      C1398   1.409   1_655  A
C1398      H1403   1.083       .  S
C1399      C1400   1.406       .  A
C1400      H1404   1.082       .  S
C1405      H1411   1.083       .  S
C1405      C1406   1.406       .  A
C1405      C1410   1.405       .  A
C1406      C1407   1.409       .  A
C1407      H1412   1.082       .  S
C1407      C1408   1.406       .  A
C1408      H1413   1.083       .  S
C1408      C1409   1.406       .  A
C1409      C1410   1.409       .  A
C1410      H1414   1.082       .  S
C1415      C1416   1.402       .  A
C1415      C1420   1.389       .  A
C1416      C1417   1.402       .  A
C1417      H1422   1.083       .  S
C1417      C1418   1.391       .  A
C1418      H1423   1.083       .  S
C1418      C1419   1.402       .  A
C1419      C1420   1.402       .  A
C1420      H1424   1.082       .  S
C1425      H1431   1.083       .  S
C1425      C1426   1.404       .  A
C1425      C1430   1.391       .  A
C1426      C1427   1.401       .  A
C1427      H1432   1.082       .  S
C1427      C1428   1.390       .  A
C1428      H1433   1.083       .  S
C1428      C1429   1.402       .  A
C1429      C1430   1.401       .  A
C1430      H1434   1.082       .  S
C1435      H1441   1.083       .  S
C1435      C1436   1.414       .  A
C1435      C1440   1.404       .  A
C1436      C1437   1.395       .  A
C1437      H1442   1.082       .  S
C1437      C1438   1.393       .  A
C1438      H1443   1.083       .  S
C1438      C1439   1.413       .  A
C1439      C1440   1.399       .  A
C1440      H1444   1.083       .  S
C1445      H1451   1.083       .  S
C1445      C1446   1.395       .  A
C1445      C1450   1.392       .  A
C1446      C1447   1.410       .  A
C1447      H1452   1.083       .  S
C1447      C1448   1.401       .  A
C1448      H1453   1.083       .  S
C1448      C1449   1.400       .  A
C1449      C1450   1.411       .  A
C1450      H1454   1.082       .  S
C1455      H1461   1.081       .  S
C1455      C1456   1.413       .  A
C1455      C1460   1.404       .  A
C1456      C1457   1.395       .  A
C1457      H1462   1.083       .  S
C1457      C1458   1.391       .  A
C1458      H1463   1.081       .  S
C1458      C1459   1.411       .  A
C1459      C1460   1.400       .  A
C1460      H1464   1.083       .  S
C1465      H1471   1.083       .  S
C1465      C1466   1.395       .  A
C1465      C1470   1.393       .  A
C1466      C1467   1.414       .  A
C1467      H1472   1.081       .  S
C1467      C1468   1.403       .  A
C1468      H1473   1.083       .  S
C1468      C1469   1.398       .  A
C1469      C1470   1.413       .  A
C1470      H1474   1.083       .  S
C1475      H1481   1.083       .  S
C1475      C1476   1.414       .  A
C1475      C1480   1.405       .  A
C1476      C1477   1.396       .  A
C1477      H1482   1.082       .  S
C1477      C1478   1.395       .  A
C1478      H1483   1.083       .  S
C1478      C1479   1.413       .  A
C1479      C1480   1.400       .  A
C1480      H1484   1.083       .  S
C1485      H1491   1.083       .  S
C1485      C1486   1.411       .  A
C1485      C1490   1.404       .  A
C1486      C1487   1.394       .  A
C1487      H1492   1.083       .  S
C1487      C1488   1.392       .  A
C1488      H1493   1.081       .  S
C1488      C1489   1.412       .  A
C1489      C1490   1.401       .  A
C1490      H1494   1.083       .  S
C1495      H1501   1.081       .  S
C1495      C1496   1.412       .  A
C1495      C1500   1.405       .  A
C1496      C1497   1.398       .  A
C1497      H1502   1.083       .  S
C1497      C1498   1.394       .  A
C1498      H1503   1.081       .  S
C1498      C1499   1.412       .  A
C1499      C1500   1.401       .  A
C1500      H1504   1.083       .  S
C1505      H1511   1.083       .  S
C1505      C1506   1.413       .  A
C1505      C1510   1.397       .  A
C1506      C1507   1.400       .  A
C1507      H1512   1.083       .  S
C1507      C1508   1.406       .  A
C1508      H1513   1.081       .  S
C1508      C1509   1.414       .  A
C1509      C1510   1.397       .  A
C1510      H1514   1.083       .  S
C1515      H1521   1.083       .  S
C1515      C1516   1.412       .  A
C1515      C1520   1.404       .  A
C1516      C1517   1.393       .  A
C1517      H1522   1.083       .  S
C1517      C1518   1.392       .  A
C1518      H1523   1.081       .  S
C1518      C1519   1.413       .  A
C1519      C1520   1.400       .  A
C1520      H1524   1.083       .  S
C1525      H1531   1.083       .  S
C1525      C1526   1.397       .  A
C1525      C1530   1.397       .  A
C1526      C1527   1.414       .  A
C1527      H1532   1.083       .  S
C1527      C1528   1.405       .  A
C1528      H1533   1.083       .  S
C1528      C1529   1.399       .  A
C1529      C1530   1.414       .  A
C1530      H1534   1.083       .  S
C1535      H1541   1.083       .  S
C1535      C1536   1.400       .  A
C1535      C1540   1.404       .  A
C1536      C1537   1.410       .  A
C1537      H1542   1.081       .  S
C1537      C1538   1.391       .  A
C1538      H1543   1.083       .  S
C1538      C1539   1.396       .  A
C1539      C1540   1.412       .  A
C1540      H1544   1.081       .  S
C1545      H1551   1.083       .  S
C1545      C1546   1.412       .  A
C1545      C1550   1.394       .  A
C1546      C1547   1.399       .  A
C1547      H1552   1.083       .  S
C1547      C1548   1.402       .  A
C1548      H1553   1.082       .  S
C1548      C1549   1.412       .  A
C1549      C1550   1.395       .  A
C1550      H1554   1.083       .  S
C1555      H1561   1.083       .  S
C1555      C1556   1.394       .  A
C1555      C1560   1.394       .  A
C1556      C1557   1.412       .  A
C1557      H1562   1.083       .  S
C1557      C1558   1.405       .  A
C1558      H1563   1.083       .  S
C1558      C1559   1.401       .  A
C1559      C1560   1.413       .  A
C1560      H1564   1.082       .  S
C1565      H1571   1.083       .  S
C1565      C1566   1.414       .  A
C1565      C1570   1.405       .  A
C1566      C1567   1.395       .  A
C1567      H1572   1.083       .  S
C1567      C1568   1.395       .  A
C1568      H1573   1.083       .  S
C1568      C1569   1.415       .  A
C1569      C1570   1.399       .  A
C1570      H1574   1.083       .  S
C1575      H1581   1.083       .  S
C1575      C1576   1.398       .  A
C1575      C1580   1.394       .  A
C1576      C1577   1.413       .  A
C1577      H1582   1.081       .  S
C1577      C1578   1.405       .  A
C1578      H1583   1.083       .  S
C1578      C1579   1.400       .  A
C1579      C1580   1.410       .  A
C1580      H1584   1.082       .  S
C1585      H1591   1.083       .  S
C1585      C1586   1.394       .  A
C1585      C1590   1.393       .  A
C1586      C1587   1.413       .  A
C1587      H1592   1.082       .  S
C1587      C1588   1.402       .  A
C1588      H1593   1.083       .  S
C1588      C1589   1.398       .  A
C1589      C1590   1.412       .  A
C1590      H1594   1.083       .  S
C1595      H1601   1.083       .  S
C1595      C1596   1.396       .  A
C1595      C1600   1.394       .  A
C1596      C1597   1.411       .  A
C1597      H1602   1.083       .  S
C1597      C1598   1.404       .  A
C1598      H1603   1.083       .  S
C1598      C1599   1.401       .  A
C1599      C1600   1.412       .  A
C1600      H1604   1.081       .  S
C1605      H1611   1.083       .  S
C1605      C1606   1.394       .  A
C1605      C1610   1.393       .  A
C1606      C1607   1.413       .  A
C1607      H1612   1.083       .  S
C1607      C1608   1.401       .  A
C1608      H1613   1.083       .  S
C1608      C1609   1.397       .  A
C1609      C1610   1.413       .  A
C1610      H1614   1.083       .  S
C1615      H1621   1.083       .  S
C1615      C1616   1.398       .  A
C1615      C1620   1.402       .  A
C1616      C1617   1.412       .  A
C1617      H1622   1.083       .  S
C1617      C1618   1.393       .  A
C1618      H1623   1.083       .  S
C1618      C1619   1.395       .  A
C1619      C1620   1.413       .  A
C1620      H1624   1.081       .  S
C1625      H1631   1.082       .  S
C1625      C1626   1.413       .  A
C1625      C1630   1.405       .  A
C1626      C1627   1.397       .  A
C1627      H1632   1.083       .  S
C1627      C1628   1.393       .  A
C1628      H1633   1.082       .  S
C1628      C1629   1.410       .  A
C1629      C1630   1.400       .  A
C1630      H1634   1.083       .  S
C1635      H1641   1.083       .  S
C1635      C1636   1.395       .  A
C1635      C1640   1.394       .  A
C1636      C1637   1.410       .  A
C1637      H1642   1.083       .  S
C1637      C1638   1.402       .  A
C1638      H1643   1.083       .  S
C1638      C1639   1.400       .  A
C1639      C1640   1.412       .  A
C1640      H1644   1.082       .  S
C1645      H1651   1.083       .  S
C1645      C1646   1.414       .  A
C1645      C1650   1.395       .  A
C1646      C1647   1.398       .  A
C1647      H1652   1.083       .  S
C1647      C1648   1.404       .  A
C1648      H1653   1.083       .  S
C1648      C1649   1.414       .  A
C1649      C1650   1.395       .  A
C1650      H1654   1.083       .  S
C1655      H1661   1.081       .  S
C1655      C1656   1.414       .  A
C1655      C1660   1.403       .  A
C1656      C1657   1.395       .  A
C1657      H1662   1.083       .  S
C1657      C1658   1.392       .  A
C1658      H1663   1.083       .  S
C1658      C1659   1.412       .  A
C1659      C1660   1.399       .  A
C1660      H1664   1.083       .  S
C1665      H1671   1.082       .  S
C1665      C1666   1.413       .  A
C1665      C1670   1.406       .  A
C1666      C1667   1.398       .  A
C1667      H1672   1.083       .  S
C1667      C1668   1.394       .  A
C1668      H1673   1.082       .  S
C1668      C1669   1.410       .  A
C1669      C1670   1.401       .  A
C1670      H1674   1.083       .  S
