geometry optimzed in LAMMPS
_audit_creation_date              2020-11-30 
_audit_creation_method            'lammps2cif' 
_symmetry_space_group_name_H-M    'P1' 
_symmetry_Int_Tables_number       1 
_symmetry_cell_setting            triclinic 
loop_ 
_symmetry_equiv_pos_as_xyz 
  x,y,z 
_cell_length_a                    58.27756742 
_cell_length_b                    58.30791383314312 
_cell_length_c                    26.736924822939443 
_cell_angle_alpha                 89.78333549643601 
_cell_angle_beta                  89.99407766938704 
_cell_angle_gamma                 90.12577261003376 
loop_ 
_atom_site_label 
_atom_site_type_symbol 
_atom_site_fract_x 
_atom_site_fract_y 
_atom_site_fract_z 
_atom_site_charge 
N1          N  0.37869738  0.00384441  0.54864847    -0.35500
N2          N  0.38818512  0.97063886  0.46974867    -0.56100
N3          N  0.39254127  0.00790348  0.39835237    -0.35500
N4          N  0.38651287  0.04154149  0.47936131    -0.56100
C5          C  0.38096545  0.98442371  0.57601274     0.28100
C6          C  0.37982163  0.02167702  0.58080981     0.28100
C7          C  0.40091847  0.99026758  0.37088967     0.28000
C8          C  0.39906872  0.02765677  0.37564911     0.28000
C9          C  0.38136625  0.95607601  0.50636757     0.36700
C10         C  0.38933809  0.95817225  0.42725134     0.36700
C11         C  0.37823180  0.05350700  0.51875378     0.36700
C12         C  0.38532728  0.05569272  0.43925385     0.36700
C13         C  0.38352175  0.98998682  0.62613511    -0.20800
C14         C  0.38281544  0.01347097  0.62915774    -0.20800
C15         C  0.41299435  0.99902443  0.33033618    -0.20800
C16         C  0.41176664  0.02255250  0.33325721    -0.20800
C17         C  0.37813129  0.93428830  0.48709732    -0.21900
C18         C  0.38322275  0.93559203  0.43701977    -0.21900
C19         C  0.37201883  0.07538341  0.50371773    -0.21900
C20         C  0.37657530  0.07680048  0.45341697    -0.21900
C21         C  0.37961626  0.96176590  0.55758056    -0.17200
C22         C  0.37671862  0.04504755  0.56833021    -0.17200
C23         C  0.39263038  0.05012113  0.39030770    -0.17200
C24         C  0.39726317  0.96652155  0.38053847    -0.17200
H25         H  0.38548791  0.97833203  0.65744661     0.15700
H26         H  0.38414307  0.02335484  0.66323487     0.15700
H27         H  0.42179411  0.98951636  0.30147209     0.15700
H28         H  0.41935243  0.03454263  0.30701158     0.15700
H29         H  0.37295587  0.91897263  0.50716156     0.14000
H30         H  0.38266041  0.92145966  0.41091976     0.14000
H31         H  0.36472611  0.08885336  0.52641589     0.14000
H32         H  0.37351418  0.09162619  0.42989560     0.14000
H33         H  0.37395309  0.00473682  0.51122424     0.27200
H34         H  0.38083132  0.00664794  0.42771834     0.27200
O35         O  0.38024473  0.14780056  0.90780126    -0.56700
C36         C  0.38342996  0.14579989  0.05665491     0.75900
O37         O  0.42470402  0.20141729  0.97255291    -0.57900
C38         C  0.38896761  0.15839488  0.87106527     0.75900
C39         C  0.35472004  0.21189607  0.98125959     0.78300
Cd40       Cd  0.39015389  0.17660024  0.97234629     1.37500
O41         O  0.37735224  0.14058678  0.01272655    -0.56700
O42         O  0.35037709  0.19124203  0.97078803    -0.55500
C43         C  0.43858450  0.18530830  0.98212935     0.78200
O44         O  0.37563443  0.21673715  0.98847824    -0.57900
O45         O  0.39213557  0.16554174  0.06229029    -0.56400
O46         O  0.39778803  0.17771479  0.88050433    -0.56400
O47         O  0.43006383  0.16547741  0.98726074    -0.55500
O48         O  0.42300380  0.85449927  0.04877105    -0.56700
C49         C  0.41214068  0.86340173  0.86819137     0.75900
O50         O  0.45741866  0.83828291  0.93630506    -0.57900
C51         C  0.40696643  0.86905241  0.04671399     0.75900
C52         C  0.38856461  0.79804139  0.95808301     0.78300
Cd53       Cd  0.41697182  0.83869722  0.96198283     1.37500
O54         O  0.39847110  0.84722330  0.87908789    -0.56700
O55         O  0.38419558  0.81447953  0.98735165    -0.55500
C56         C  0.46375324  0.82286461  0.96664332     0.78200
O57         O  0.40601196  0.80033347  0.93048650    -0.57900
O58         O  0.42705843  0.86834209  0.90071670    -0.56400
O59         O  0.39567728  0.86953134  0.00633624    -0.56400
O60         O  0.44849335  0.81471540  0.99528379    -0.55500
N61         N  0.69925891  0.99128614  0.40224535    -0.35500
N62         N  0.69613911  0.02272346  0.48680979    -0.56100
N63         N  0.70054193  0.98428240  0.55451436    -0.35500
N64         N  0.70104778  0.95258968  0.47035489    -0.56100
C65         C  0.69108268  0.01053941  0.38016118     0.28100
C66         C  0.69438699  0.97349975  0.37149173     0.28100
C67         C  0.69398242  0.00105168  0.58629085     0.28000
C68         C  0.69650669  0.96400993  0.57772367     0.28000
C69         C  0.69846414  0.03805188  0.44914207     0.36700
C70         C  0.69941129  0.03440900  0.52984745     0.36700
C71         C  0.70668643  0.94194638  0.42720414     0.36700
C72         C  0.70732962  0.93833199  0.50787370     0.36700
C73         C  0.68063593  0.00482911  0.33519953    -0.20800
C74         C  0.68288352  0.98148602  0.32957382    -0.20800
C75         C  0.68562565  0.99137105  0.63008691    -0.20800
C76         C  0.68699532  0.96799060  0.62451030    -0.20800
C77         C  0.70338012  0.05958317  0.46833561    -0.21900
C78         C  0.70398030  0.05726293  0.51956226    -0.21900
C79         C  0.71686064  0.92098097  0.43742889    -0.21900
C80         C  0.71710676  0.91862386  0.48858946    -0.21900
C81         C  0.69398131  0.03321486  0.39830173    -0.17200
C82         C  0.70128858  0.95050276  0.37907004    -0.17200
C83         C  0.70277460  0.94219917  0.55898814    -0.17200
C84         C  0.69668332  0.02483229  0.57808937    -0.17200
H85         H  0.67230478  0.01627600  0.30896729     0.15700
H86         H  0.67669074  0.97150926  0.29827333     0.15700
H87         H  0.67924928  0.00024893  0.66273580     0.15700
H88         H  0.68179820  0.95541738  0.65215719     0.15700
H89         H  0.70581463  0.07540029  0.44767892     0.14000
H90         H  0.70695456  0.07090472  0.54613513     0.14000
H91         H  0.72331627  0.90857319  0.41098731     0.14000
H92         H  0.72366865  0.90404945  0.50924511     0.14000
H93         H  0.70984587  0.99068016  0.43358721     0.27200
H94         H  0.70978539  0.98654485  0.52159229     0.27200
O95         O  0.68002165  0.11931566  0.02298965    -0.56700
C96         C  0.66464482  0.13324052  0.88341958     0.75900
O97         O  0.62691212  0.17530717  0.98236100    -0.57900
C98         C  0.67919465  0.12697928  0.06713250     0.75900
C99         C  0.69670764  0.19074797  0.97939593     0.78300
Cd100      Cd  0.66390118  0.15352994  0.98205592     1.37500
O101        O  0.67241665  0.12286365  0.92143070    -0.56700
O102        O  0.70128006  0.17105573  0.96268916    -0.55500
C103        C  0.61534290  0.15887317  0.00065372     0.78200
O104        O  0.67680566  0.19351267  0.99731120    -0.57900
O105        O  0.65630218  0.15293669  0.89084140    -0.56400
O106        O  0.67168816  0.14719612  0.07227747    -0.56400
O107        O  0.62613052  0.14060075  0.00990421    -0.55500
O108        O  0.71147813  0.85059341  0.93552996    -0.56700
C109        C  0.68855798  0.83639617  0.07863960     0.75900
O110        O  0.65269335  0.83993484  0.96322777    -0.57900
C111        C  0.70433994  0.84686692  0.89160912     0.75900
C112        C  0.71472074  0.77720647  0.97638978     0.78300
Cd113      Cd  0.68868256  0.81969696  0.97631596     1.37500
O114        O  0.67446499  0.82147324  0.06352286    -0.56700
O115        O  0.72357414  0.79639875  0.98688844    -0.55500
C116        C  0.64034776  0.82217515  0.95911673     0.78200
O117        O  0.69367750  0.77741581  0.96486828    -0.57900
O118        O  0.70320994  0.84331671  0.04698092    -0.56400
O119        O  0.69058380  0.83022955  0.88650041    -0.56400
O120        O  0.65036764  0.80293397  0.96250668    -0.55500
N121        N  0.02439093  0.35440676  0.62210106    -0.35500
N122        N  0.98921710  0.35804067  0.54578273    -0.56100
N123        N  0.02463445  0.36211956  0.46921689    -0.35500
N124        N  0.05966903  0.36131168  0.54529455    -0.56100
C125        C  0.00553698  0.35918489  0.64994167     0.28100
C126        C  0.04295272  0.36057561  0.64953008     0.28100
C127        C  0.00560528  0.36811421  0.44338192     0.28000
C128        C  0.04296610  0.37005569  0.44312858     0.28000
C129        C  0.97586350  0.35236857  0.58532244     0.36700
C130        C  0.97598294  0.35564592  0.50458908     0.36700
C131        C  0.07300130  0.35561155  0.58477012     0.36700
C132        C  0.07315227  0.35981580  0.50421679     0.36700
C133        C  0.01222107  0.36870733  0.69508060    -0.20800
C134        C  0.03578607  0.36960298  0.69480383    -0.20800
C135        C  0.01187359  0.38032605  0.40088715    -0.20800
C136        C  0.03546472  0.38156621  0.40074664    -0.20800
C137        C  0.95405916  0.34634605  0.56915892    -0.21900
C138        C  0.95414314  0.34841709  0.51798545    -0.21900
C139        C  0.09498932  0.35035117  0.56865494    -0.21900
C140        C  0.09509011  0.35306846  0.51759934    -0.21900
C141        C  0.98252123  0.35467035  0.63585111    -0.17200
C142        C  0.06616136  0.35734496  0.63530808    -0.17200
C143        C  0.06624092  0.36594134  0.45534757    -0.17200
C144        C  0.98287251  0.36155632  0.45554943    -0.17200
H145        H  0.00130120  0.37475589  0.72495746     0.15700
H146        H  0.04638427  0.37641294  0.72449137     0.15700
H147        H  0.00061449  0.38746503  0.37268176     0.15700
H148        H  0.04589019  0.38984441  0.37243139     0.15700
H149        H  0.93949634  0.34130463  0.59183117     0.14000
H150        H  0.93965903  0.34533722  0.49356427     0.14000
H151        H  0.10955367  0.34542457  0.59135831     0.14000
H152        H  0.10969479  0.35058156  0.49321963     0.14000
H153        H  0.02470205  0.34547204  0.58875388     0.27200
H154        H  0.02512646  0.35087160  0.49950630     0.27200
O155        O  0.17364331  0.38254626  0.11866663    -0.56700
C156        C  0.16150503  0.36478435  0.96519170     0.75900
O157        O  0.20596715  0.41286567  0.06834183    -0.57900
C158        C  0.17120111  0.36210213  0.13385788     0.75900
C159        C  0.23730122  0.34568700  0.03971136     0.78300
Cd160      Cd  0.19550155  0.37310416  0.04193954     1.37500
O161        O  0.18273632  0.36252223  0.95665287    -0.56700
O162        O  0.21898195  0.33918776  0.01865371    -0.55500
C163        C  0.20687536  0.42103760  0.02444027     0.78200
O164        O  0.23638323  0.36471305  0.06219523    -0.57900
O165        O  0.15597873  0.37041389  0.00914087    -0.56400
O166        O  0.18056139  0.34674646  0.10758398    -0.56400
O167        O  0.20348015  0.40704759  0.98923205    -0.55500
O168        O  0.86556491  0.35705791  0.95897692    -0.56700
C169        C  0.88045244  0.34459753  0.13509908     0.75900
O170        O  0.84096261  0.38913901  0.08775852    -0.57900
C171        C  0.88342532  0.34496122  0.96452001     0.75900
C172        C  0.81011023  0.32628495  0.04134164     0.78300
Cd173      Cd  0.85257557  0.35313982  0.04705223     1.37500
O174        O  0.86943860  0.32854470  0.11420718    -0.56700
O175        O  0.82758503  0.32138769  0.01560260    -0.55500
C176        C  0.84370819  0.40190378  0.04990010     0.78200
O177        O  0.81204776  0.34352269  0.06945647    -0.57900
O178        O  0.87850973  0.36424804  0.11553557    -0.56400
O179        O  0.88673656  0.33653816  0.00753861    -0.56400
O180        O  0.84937024  0.39202606  0.00962732    -0.55500
N181        N  0.05329452  0.65951094  0.43006784    -0.35500
N182        N  0.08622497  0.66266353  0.51197305    -0.56100
N183        N  0.04829377  0.66145016  0.58168773    -0.35500
N184        N  0.01598893  0.65620937  0.49968990    -0.56100
C185        C  0.07335140  0.65504003  0.40675060     0.28100
C186        C  0.03624173  0.65152582  0.40032389     0.28100
C187        C  0.06642975  0.65812209  0.61247308     0.28000
C188        C  0.02948906  0.65334639  0.60576301     0.28000
C189        C  0.10021610  0.66770758  0.47316967     0.36700
C190        C  0.09760246  0.66878240  0.55393649     0.36700
C191        C  0.00388378  0.65932774  0.45717554     0.36700
C192        C  0.00115722  0.65917325  0.53778390     0.36700
C193        C  0.06901990  0.64366300  0.36223675    -0.20800
C194        C  0.04560193  0.64175863  0.35781969    -0.20800
C195        C  0.05913207  0.64779339  0.65644680    -0.20800
C196        C  0.03586799  0.64450010  0.65196907    -0.20800
C197        C  0.12067832  0.67688183  0.49052551    -0.21900
C198        C  0.11896795  0.67768713  0.54175841    -0.21900
C199        C  0.98122621  0.66440355  0.46825386    -0.21900
C200        C  0.97948974  0.66428497  0.51952156    -0.21900
C201        C  0.09520973  0.66276436  0.42268943    -0.17200
C202        C  0.01256353  0.65478433  0.40910336    -0.17200
C203        C  0.00659653  0.65517338  0.58834541    -0.17200
C204        C  0.08919166  0.66521338  0.60292303    -0.17200
H205        H  0.08141341  0.63772840  0.33509779     0.15700
H206        H  0.03665678  0.63428152  0.32642725     0.15700
H207        H  0.06953642  0.64297891  0.68832149     0.15700
H208        H  0.02491187  0.63665121  0.67989485     0.15700
H209        H  0.13533123  0.68237337  0.46864281     0.14000
H210        H  0.13202545  0.68403013  0.56694819     0.14000
H211        H  0.96727772  0.66715828  0.44220593     0.14000
H212        H  0.96398232  0.66715497  0.54086110     0.14000
H213        H  0.05131963  0.67009606  0.46094484     0.27200
H214        H  0.04838110  0.67106919  0.54891371     0.27200
O215        O  0.18974595  0.66169801  0.94249186    -0.56700
C216        C  0.18523400  0.65923994  0.08574936     0.75900
O217        O  0.23866608  0.61541401  0.04098707    -0.57900
C218        C  0.20021348  0.65232644  0.90648408     0.75900
C219        C  0.25360732  0.68276127  0.01019097     0.78300
Cd220      Cd  0.21717144  0.64898638  0.00719332     1.37500
O221        O  0.18031920  0.66253443  0.04021224    -0.56700
O222        O  0.23399349  0.68646671  0.02835463    -0.55500
C223        C  0.22455952  0.60053342  0.02535018     0.78200
O224        O  0.25671543  0.66328408  0.99069798    -0.57900
O225        O  0.20498280  0.65127251  0.09511128    -0.56400
O226        O  0.21861961  0.64196536  0.91694971    -0.56400
O227        O  0.20732697  0.60805717  0.00175263    -0.55500
O228        O  0.89560261  0.62897874  0.09417290    -0.56700
C229        C  0.91398801  0.64048485  0.92037267     0.75900
O230        O  0.86786036  0.58858909  0.03361514    -0.57900
C231        C  0.91519055  0.61968568  0.09151822     0.75900
C232        C  0.85122314  0.66036214  0.01104604     0.78300
Cd233      Cd  0.88623862  0.62491674  0.00401540     1.37500
O234        O  0.89546120  0.62956058  0.91391355    -0.56700
O235        O  0.87168383  0.66331854  0.02507378    -0.55500
C236        C  0.86992438  0.57814160  0.99244293     0.78200
O237        O  0.84634966  0.64068356  0.99427795    -0.57900
O238        O  0.91973911  0.64422852  0.96517308    -0.56400
O239        O  0.92130450  0.61269320  0.04882990    -0.56400
O240        O  0.87865901  0.58945252  0.95679897    -0.55500
C241        C  0.96858921  0.65840981  0.70680172     0.19800
C242        C  0.97028743  0.67114065  0.75106075    -0.18300
C243        C  0.95533664  0.66712032  0.79092303    -0.10600
C244        C  0.93836812  0.65000387  0.78763285     0.22000
C245        C  0.93601613  0.63788204  0.74266044    -0.19900
C246        C  0.95101097  0.64188283  0.70269737    -0.10800
C247        C  0.92311758  0.64401297  0.83035722    -0.14900
C248        C  0.92847420  0.64834866  0.87840641    -0.28800
C249        C  0.98610729  0.66256542  0.66737267    -0.03100
C250        C  0.98731380  0.65125473  0.62375598    -0.39600
H251        H  0.98347489  0.68412784  0.75514344     0.13200
H252        H  0.95721744  0.67750062  0.82407844     0.12800
H253        H  0.92289939  0.62480449  0.73889466     0.12200
H254        H  0.94881608  0.63167835  0.66943171     0.12500
H255        H  0.90759418  0.63435684  0.82221273     0.15200
H256        H  0.94434585  0.65701944  0.88794401     0.14000
H257        H  0.99936176  0.67520160  0.67530590     0.11700
H258        H  0.97402481  0.63934973  0.61247312     0.13700
C259        C  0.94242230  0.62829042  0.22198102     0.19800
C260        C  0.94004874  0.64580503  0.25748853    -0.18300
C261        C  0.95563379  0.64794591  0.29697459    -0.10600
C262        C  0.97388588  0.63236893  0.30221451     0.22000
C263        C  0.97577956  0.61432300  0.26786973    -0.19900
C264        C  0.96030868  0.61230822  0.22803074    -0.10800
C265        C  0.99072440  0.63396845  0.34387236    -0.14900
C266        C  0.99612567  0.65379091  0.36666795    -0.28800
C267        C  0.92601165  0.62757265  0.17925740    -0.03100
C268        C  0.93055070  0.61736385  0.13526078    -0.39600
H269        H  0.92623432  0.65812582  0.25427112     0.13200
H270        H  0.95306220  0.66159386  0.32366546     0.12800
H271        H  0.98943573  0.60185534  0.27160166     0.12200
H272        H  0.96234899  0.59811244  0.20253229     0.12500
H273        H  0.99952850  0.61839339  0.35533707     0.15200
H274        H  0.98786711  0.66969338  0.35578394     0.14000
H275        H  0.91029327  0.63744278  0.18276233     0.11700
H276        H  0.94660430  0.60837586  0.12960434     0.13700
C277        C  0.16228688  0.66383386  0.79130713     0.19800
C278        C  0.14877124  0.68232104  0.77530290    -0.18300
C279        C  0.13709877  0.68140449  0.72968980    -0.10600
C280        C  0.13845562  0.66174127  0.69947025     0.22000
C281        C  0.15273556  0.64365257  0.71446085    -0.19900
C282        C  0.16443198  0.64456904  0.76008082    -0.10800
C283        C  0.12477370  0.65934023  0.65291548    -0.14900
C284        C  0.10416471  0.66933240  0.64710724    -0.28800
C285        C  0.17247803  0.66450002  0.84213397    -0.03100
C286        C  0.19142550  0.65278169  0.85486917    -0.39600
H287        H  0.14701474  0.69741400  0.79849347     0.13200
H288        H  0.12689002  0.69601884  0.71843863     0.12800
H289        H  0.15415060  0.62838833  0.69170260     0.12200
H290        H  0.17432836  0.62978656  0.77157112     0.12500
H291        H  0.13088779  0.64765750  0.62429741     0.15200
H292        H  0.09677288  0.67897309  0.67779258     0.14000
H293        H  0.16410574  0.67514047  0.86997961     0.11700
H294        H  0.20076225  0.64306182  0.82698779     0.13700
C295        C  0.12793718  0.67249580  0.29875517     0.19800
C296        C  0.12010786  0.67643645  0.24987664    -0.18300
C297        C  0.13477201  0.67380736  0.20899183    -0.10600
C298        C  0.15777416  0.66716102  0.21616472     0.22000
C299        C  0.16574390  0.66391026  0.26524106    -0.19900
C300        C  0.15108424  0.66661223  0.30612252    -0.10800
C301        C  0.17405622  0.66313064  0.17418186    -0.14900
C302        C  0.16846818  0.66428592  0.12540037    -0.28800
C303        C  0.11115276  0.67400307  0.34035525    -0.03100
C304        C  0.11416338  0.66415245  0.38551855    -0.39600
H305        H  0.10239088  0.68113644  0.24315016     0.13200
H306        H  0.12773924  0.67687804  0.17225543     0.12800
H307        H  0.18340724  0.65905771  0.27205246     0.12200
H308        H  0.15808441  0.66408222  0.34314008     0.12500
H309        H  0.19157039  0.65858623  0.18403996     0.15200
H310        H  0.15134598  0.66884226  0.11337405     0.14000
H311        H  0.09467661  0.68190621  0.33218568     0.11700
H312        H  0.13033880  0.65628364  0.39559587     0.13700
C313        C  0.85135819  0.51527377  0.01952916     0.19800
C314        C  0.84570546  0.50302532  0.06321210    -0.18300
C315        C  0.84311130  0.47913319  0.06253284    -0.10600
C316        C  0.84607262  0.46679117  0.01776590     0.22000
C317        C  0.85103245  0.47911308  0.97385448    -0.19900
C318        C  0.85360225  0.50296673  0.97451801    -0.10800
C319        C  0.84538859  0.44120068  0.01492711    -0.14900
C320        C  0.84114585  0.42705818  0.05381784    -0.28800
C321        C  0.85562684  0.54052998  0.02343945    -0.03100
C322        C  0.86324739  0.55387307  0.98559771    -0.39600
H323        H  0.84376495  0.51193729  0.09843865     0.13200
H324        H  0.83927041  0.47062860  0.09747585     0.12800
H325        H  0.85335144  0.47017913  0.93876024     0.12200
H326        H  0.85762490  0.51136034  0.93956986     0.12500
H327        H  0.84954308  0.43354143  0.97904855     0.15200
H328        H  0.83681138  0.43375599  0.09030641     0.14000
H329        H  0.85343559  0.54832059  0.06000050     0.11700
H330        H  0.86596334  0.54688971  0.94865607     0.13700
C331        C  0.21481017  0.48663814  0.03904555     0.19800
C332        C  0.22532763  0.50130182  0.07385098    -0.18300
C333        C  0.22583029  0.52511225  0.06594311    -0.10600
C334        C  0.21548178  0.53476031  0.02320809     0.22000
C335        C  0.20490893  0.52009643  0.98864474    -0.19900
C336        C  0.20457897  0.49637445  0.99629518    -0.10800
C337        C  0.21367578  0.55995550  0.01486698    -0.14900
C338        C  0.22796971  0.57571220  0.03455505    -0.28800
C339        C  0.21338822  0.46153772  0.04979069    -0.03100
C340        C  0.21089029  0.44562785  0.01374638    -0.39600
H341        H  0.23299844  0.49431890  0.10750583     0.13200
H342        H  0.23361261  0.53588094  0.09412406     0.12800
H343        H  0.19652310  0.52707433  0.95579616     0.12200
H344        H  0.19557089  0.48586808  0.96941651     0.12500
H345        H  0.19998868  0.56577368  0.99030728     0.15200
H346        H  0.24248090  0.57046782  0.05725606     0.14000
H347        H  0.21428011  0.45602245  0.08861371     0.11700
H348        H  0.21106774  0.45072933  0.97468623     0.13700
C349        C  0.95029930  0.35189400  0.33139852     0.19800
C350        C  0.94775982  0.33336369  0.29841723    -0.18300
C351        C  0.93277039  0.33481201  0.25752873    -0.10600
C352        C  0.92028847  0.35504699  0.24841396     0.22000
C353        C  0.92325700  0.37370214  0.28081024    -0.19900
C354        C  0.93797027  0.37214816  0.32194641    -0.10800
C355        C  0.90512106  0.35796177  0.20409517    -0.14900
C356        C  0.89494491  0.34051944  0.17964866    -0.28800
C357        C  0.96697970  0.35026526  0.37332807    -0.03100
C358        C  0.96504923  0.36251211  0.41573857    -0.39600
H359        H  0.95744760  0.31774464  0.30424955     0.13200
H360        H  0.93153074  0.32033289  0.23249464     0.12800
H361        H  0.91421037  0.38963331  0.27412637     0.12200
H362        H  0.94013230  0.38708261  0.34538421     0.12500
H363        H  0.90175183  0.37542493  0.19177248     0.15200
H364        H  0.89696722  0.32298880  0.19260940     0.14000
H365        H  0.98131777  0.33850289  0.36944363     0.11700
H366        H  0.94986927  0.37279116  0.42255620     0.13700
C367        C  0.91550064  0.34882289  0.83793862     0.19800
C368        C  0.91541199  0.36494957  0.79885406    -0.18300
C369        C  0.93134284  0.36364711  0.75988920    -0.10600
C370        C  0.94767644  0.34589143  0.75863667     0.22000
C371        C  0.94767747  0.32963114  0.79749025    -0.19900
C372        C  0.93171881  0.33093420  0.83653451    -0.10800
C373        C  0.96555770  0.34441278  0.71890557    -0.14900
C374        C  0.96395941  0.35521485  0.67439076    -0.28800
C375        C  0.89840672  0.35144467  0.87903712    -0.03100
C376        C  0.89993961  0.34082159  0.92368865    -0.39600
H377        H  0.90318778  0.37892270  0.79888535     0.13200
H378        H  0.93105617  0.37698114  0.73172462     0.12800
H379        H  0.96006229  0.31580065  0.79759120     0.12200
H380        H  0.93215943  0.31775754  0.86502270     0.12500
H381        H  0.98060278  0.33395851  0.72641102     0.15200
H382        H  0.94828513  0.36410847  0.66449683     0.14000
H383        H  0.88444861  0.36348684  0.87303692     0.11700
H384        H  0.91415277  0.32949210  0.93199363     0.13700
C385        C  0.10030227  0.34898363  0.75856611     0.19800
C386        C  0.09327149  0.34596575  0.80833682    -0.18300
C387        C  0.10889525  0.34837061  0.84767013    -0.10600
C388        C  0.13203727  0.35378650  0.83796843     0.22000
C389        C  0.13921516  0.35601101  0.78803919    -0.19900
C390        C  0.12356320  0.35366316  0.74870692    -0.10800
C391        C  0.14930402  0.35668868  0.87851220    -0.14900
C392        C  0.14386281  0.36130752  0.92636018    -0.28800
C393        C  0.08290869  0.34699180  0.71817143    -0.03100
C394        C  0.08458075  0.35813524  0.67410147    -0.39600
H395        H  0.07552519  0.34199069  0.81687494     0.13200
H396        H  0.10273893  0.34565578  0.88536316     0.12800
H397        H  0.15700326  0.35974151  0.77940783     0.12200
H398        H  0.12982065  0.35527576  0.71076533     0.12500
H399        H  0.16731455  0.35581992  0.86811654     0.15200
H400        H  0.12611915  0.36342174  0.93756419     0.14000
H401        H  0.06749689  0.33709532  0.72610414     0.11700
H402        H  0.09978117  0.36820387  0.66567457     0.13700
C403        C  0.13324876  0.36759286  0.25234822     0.19800
C404        C  0.13010860  0.38491813  0.28804766    -0.18300
C405        C  0.11470511  0.38201508  0.32779390    -0.10600
C406        C  0.10185676  0.36167395  0.33262746     0.22000
C407        C  0.10510102  0.34423998  0.29717424    -0.19900
C408        C  0.12067833  0.34706123  0.25760366    -0.10800
C409        C  0.08394823  0.35870656  0.37206340    -0.14900
C410        C  0.08442876  0.36950729  0.41657809    -0.28800
C411        C  0.14840007  0.37241012  0.20851679    -0.03100
C412        C  0.15769130  0.35618645  0.17905294    -0.39600
H413        H  0.13936926  0.40098235  0.28471932     0.13200
H414        H  0.11233240  0.39607209  0.35355304     0.12800
H415        H  0.09530782  0.32846600  0.29974762     0.12200
H416        H  0.12214138  0.33346390  0.23040586     0.12500
H417        H  0.07007623  0.34668047  0.36477506     0.15200
H418        H  0.09916604  0.37993968  0.42658077     0.14000
H419        H  0.15211387  0.39030298  0.20021584     0.11700
H420        H  0.15522883  0.33814833  0.18757071     0.13700
C421        C  0.79605243  0.69735104  0.99935924     0.19800
C422        C  0.77576550  0.69594520  0.97100241    -0.18300
C423        C  0.76042329  0.71444474  0.96871489    -0.10600
C424        C  0.76507164  0.73481217  0.99497520     0.22000
C425        C  0.78500886  0.73598936  0.02422185    -0.19900
C426        C  0.80015579  0.71749097  0.02696016    -0.10800
C427        C  0.75039394  0.75563278  0.99148217    -0.14900
C428        C  0.72813916  0.75567299  0.97783671    -0.28800
C429        C  0.81252442  0.67768891  0.99872624    -0.03100
C430        C  0.83450698  0.67934467  0.01412263    -0.39600
H431        H  0.77200711  0.68064734  0.94962232     0.13200
H432        H  0.74540246  0.71293228  0.94520460     0.12800
H433        H  0.78892730  0.75137718  0.04518447     0.12200
H434        H  0.81495856  0.71925073  0.05092717     0.12500
H435        H  0.75828290  0.77180233  0.00217883     0.15200
H436        H  0.71938936  0.73978135  0.96882596     0.14000
H437        H  0.80664023  0.66154791  0.98301734     0.11700
H438        H  0.84118982  0.69543588  0.02804768     0.13700
C439        C  0.76499162  0.28031458  0.00403952     0.19800
C440        C  0.76250756  0.26600772  0.96222344    -0.18300
C441        C  0.74461153  0.25006626  0.95952945    -0.10600
C442        C  0.72879496  0.24789492  0.99895755     0.22000
C443        C  0.73048658  0.26292579  0.03966666    -0.19900
C444        C  0.74849103  0.27886052  0.04251306    -0.10800
C445        C  0.71074502  0.22983684  0.99896800    -0.14900
C446        C  0.71400165  0.20922128  0.97766101    -0.28800
C447        C  0.78573130  0.29534703  0.00680683    -0.03100
C448        C  0.78862091  0.31267177  0.03946162    -0.39600
H449        H  0.77472087  0.26690181  0.93172770     0.13200
H450        H  0.74331430  0.23935990  0.92666731     0.12800
H451        H  0.71834804  0.26174255  0.07026898     0.12200
H452        H  0.74973402  0.28933815  0.07564310     0.12500
H453        H  0.69503683  0.23301252  0.01971015     0.15200
H454        H  0.73023548  0.20530933  0.95972628     0.14000
H455        H  0.79942177  0.29192726  0.98025759     0.11700
H456        H  0.77507202  0.31728737  0.06526866     0.13700
C457        C  0.70057330  0.87301449  0.19696183     0.19800
C458        C  0.71797109  0.88863886  0.20980108    -0.18300
C459        C  0.71648776  0.90177765  0.25334260    -0.10600
C460        C  0.69748318  0.89963728  0.28542593     0.22000
C461        C  0.68066927  0.88313952  0.27425646    -0.19900
C462        C  0.68203377  0.87008242  0.23035924    -0.10800
C463        C  0.69495939  0.91420054  0.33084567    -0.14900
C464        C  0.70370690  0.93560325  0.33394860    -0.28800
C465        C  0.70208358  0.86142549  0.14723907    -0.03100
C466        C  0.68732224  0.84542052  0.13028303    -0.39600
H467        H  0.73263988  0.89106572  0.18544237     0.13200
H468        H  0.73027155  0.91361806  0.26170780     0.12800
H469        H  0.66604542  0.88084650  0.29880311     0.12200
H470        H  0.66821379  0.85826357  0.22255979     0.12500
H471        H  0.68481276  0.90755425  0.36179340     0.15200
H472        H  0.71174368  0.94325516  0.30124625     0.14000
H473        H  0.71583589  0.86695161  0.12247021     0.11700
H474        H  0.67355569  0.83902386  0.15372827     0.13700
C475        C  0.70729158  0.87433407  0.75951085     0.19800
C476        C  0.69276649  0.87283829  0.71773411    -0.18300
C477        C  0.69518433  0.88790794  0.67725716    -0.10600
C478        C  0.71250113  0.90477513  0.67725324     0.22000
C479        C  0.72740710  0.90592472  0.71845972    -0.19900
C480        C  0.72495270  0.89086117  0.75904602    -0.10800
C481        C  0.71440182  0.92265291  0.63750672    -0.14900
C482        C  0.70306974  0.92210309  0.59360648    -0.28800
C483        C  0.70295649  0.85858772  0.80264514    -0.03100
C484        C  0.71137884  0.86164055  0.84912636    -0.39600
H485        H  0.67902192  0.86030417  0.71694202     0.13200
H486        H  0.68293087  0.88662017  0.64708317     0.12800
H487        H  0.74085649  0.91877204  0.71959605     0.12200
H488        H  0.73691422  0.89235933  0.78973355     0.12500
H489        H  0.72487629  0.93763737  0.64564649     0.15200
H490        H  0.69394201  0.90681490  0.58194616     0.14000
H491        H  0.69108429  0.84447330  0.79646776     0.11700
H492        H  0.72266759  0.87591788  0.85739238     0.13700
C493        C  0.67706730  0.09146560  0.77430336     0.19800
C494        C  0.68764866  0.06987774  0.77197320    -0.18300
C495        C  0.68898743  0.05790082  0.72689007    -0.10600
C496        C  0.67990981  0.06733193  0.68260341     0.22000
C497        C  0.66910924  0.08878250  0.68484742    -0.19900
C498        C  0.66785019  0.10085771  0.72998780    -0.10800
C499        C  0.68076124  0.05482236  0.63414368    -0.14900
C500        C  0.69740299  0.03969482  0.62315524    -0.28800
C501        C  0.67599272  0.10312391  0.82384340    -0.03100
C502        C  0.66516453  0.12307743  0.83289164    -0.39600
H503        H  0.69475165  0.06207826  0.80538915     0.13200
H504        H  0.69671734  0.04105156  0.72722996     0.12800
H505        H  0.66180781  0.09633681  0.65138679     0.12200
H506        H  0.65963976  0.11743128  0.72948985     0.12500
H507        H  0.66737217  0.05809650  0.60674588     0.15200
H508        H  0.71101562  0.03632474  0.64983320     0.14000
H509        H  0.68447993  0.09458538  0.85495066     0.11700
H510        H  0.65649950  0.13238652  0.80334869     0.13700
C511        C  0.69637224  0.07200445  0.28007178     0.19800
C512        C  0.71122686  0.07325939  0.23880329    -0.18300
C513        C  0.70694682  0.08845894  0.19936892    -0.10600
C514        C  0.68756142  0.10274768  0.20018457     0.22000
C515        C  0.67306199  0.10209053  0.24207879    -0.19900
C516        C  0.67723951  0.08673774  0.28145609    -0.10800
C517        C  0.68190673  0.11821766  0.15764240    -0.14900
C518        C  0.68650269  0.11267068  0.10985838    -0.28800
C519        C  0.70073656  0.05404575  0.31865599    -0.03100
C520        C  0.69028036  0.05293277  0.36351366    -0.39600
H521        H  0.72610839  0.06220047  0.23673816     0.13200
H522        H  0.71884371  0.08897993  0.16830072     0.12800
H523        H  0.65803839  0.11297742  0.24359795     0.12200
H524        H  0.66505748  0.08610840  0.31190203     0.12500
H525        H  0.67218078  0.13367908  0.16546671     0.15200
H526        H  0.69467263  0.09643222  0.10134243     0.14000
H527        H  0.71297742  0.04067404  0.30933384     0.11700
H528        H  0.67932238  0.06676427  0.37605491     0.13700
C529        C  0.30934985  0.71695268  0.98923780     0.19800
C530        C  0.32321643  0.72072403  0.94710740    -0.18300
C531        C  0.33905013  0.73881981  0.94619854    -0.10600
C532        C  0.34157033  0.75324779  0.98802944     0.22000
C533        C  0.32820240  0.74889912  0.03068594    -0.19900
C534        C  0.31234432  0.73092945  0.03145701    -0.10800
C535        C  0.35699440  0.77359931  0.98843007    -0.14900
C536        C  0.37415495  0.77723708  0.95570916    -0.28800
C537        C  0.29173509  0.69854654  0.98809913    -0.03100
C538        C  0.27162417  0.70047272  0.01235372    -0.39600
H539        H  0.32127653  0.71008472  0.91423823     0.13200
H540        H  0.34869071  0.74171994  0.91222504     0.12800
H541        H  0.32990477  0.75958834  0.06354159     0.12200
H542        H  0.30246358  0.72802400  0.06517463     0.12500
H543        H  0.35426724  0.78611156  0.01787714     0.15200
H544        H  0.37818110  0.76471223  0.92718676     0.14000
H545        H  0.29476970  0.68375619  0.96440078     0.11700
H546        H  0.26776141  0.71593087  0.03321960     0.13700
C547        C  0.52855283  0.81707160  0.93958615     0.19800
C548        C  0.54376708  0.82991849  0.90988026    -0.18300
C549        C  0.56734524  0.82605702  0.91218424    -0.10600
C550        C  0.57624971  0.80920062  0.94436922     0.22000
C551        C  0.56110352  0.79549831  0.97216694    -0.19900
C552        C  0.53744963  0.79943225  0.97011209    -0.10800
C553        C  0.60127958  0.80620449  0.95060774    -0.14900
C554        C  0.61554390  0.82431561  0.95077813    -0.28800
C555        C  0.50378517  0.82308872  0.93766265    -0.03100
C556        C  0.48770129  0.81487291  0.96913509    -0.46000
H557        H  0.53743350  0.84335358  0.88545329     0.13200
H558        H  0.57861018  0.83641173  0.88908036     0.12800
H559        H  0.56764427  0.78222054  0.99674014     0.12200
H560        H  0.52644669  0.78868413  0.99274741     0.12500
H561        H  0.60785681  0.78915715  0.95864820     0.15200
H562        H  0.60874951  0.84153777  0.94630642     0.14000
H563        H  0.49865452  0.83570848  0.90980554     0.11700
H564        H  0.49191653  0.80253416  0.99804458     0.13700
C565        C  0.28185566  0.29834394  0.00734510     0.19800
C566        C  0.28317436  0.28202951  0.96893071    -0.18300
C567        C  0.30163320  0.26679837  0.96600037    -0.10600
C568        C  0.31934045  0.26735590  0.00169549     0.22000
C569        C  0.31857091  0.28418054  0.03915195    -0.19900
C570        C  0.29997209  0.29941640  0.04228632    -0.10800
C571        C  0.33875038  0.25068615  0.00011063    -0.14900
C572        C  0.33599192  0.22899736  0.98378124    -0.28800
C573        C  0.26083603  0.31299902  0.01021254    -0.03100
C574        C  0.25873490  0.33199147  0.03850199    -0.39600
H575        H  0.26971747  0.28092302  0.94109097     0.13200
H576        H  0.30203205  0.25465349  0.93550808     0.12800
H577        H  0.33210185  0.28514589  0.06684902     0.12200
H578        H  0.29969844  0.31151460  0.07279260     0.12500
H579        H  0.35532829  0.25603241  0.01461818     0.15200
H580        H  0.31906482  0.22315262  0.97255462     0.14000
H581        H  0.24635027  0.30799827  0.98702949     0.11700
H582        H  0.27305909  0.33814205  0.06055833     0.13700
C583        C  0.55172896  0.17733467  0.00004122     0.19800
C584        C  0.53865046  0.19095565  0.96743491    -0.18300
C585        C  0.51467733  0.19011159  0.96854195    -0.10600
C586        C  0.50322505  0.17572590  0.00275642     0.22000
C587        C  0.51623330  0.16245237  0.03610815    -0.19900
C588        C  0.54020577  0.16343867  0.03530926    -0.10800
C589        C  0.47790442  0.17302860  0.00228348    -0.14900
C590        C  0.46346971  0.18944291  0.98610031    -0.28800
C591        C  0.57719613  0.17753620  0.99488403    -0.03100
C592        C  0.59051553  0.16016497  0.01073308    -0.39600
H593        H  0.54701681  0.20178477  0.93990361     0.13200
H594        H  0.50524578  0.20012146  0.94134081     0.12800
H595        H  0.50780873  0.15123383  0.06282813     0.12200
H596        H  0.54950058  0.15323218  0.06233668     0.12500
H597        H  0.47089380  0.15688186  0.01594855     0.15200
H598        H  0.46991636  0.20622289  0.97534595     0.14000
H599        H  0.58503908  0.19151565  0.97393561     0.11700
H600        H  0.58295664  0.14536567  0.02906146     0.13700
C601        C  0.39475410  0.91335315  0.64942436     0.19800
C602        C  0.41566823  0.90887561  0.67336996    -0.18300
C603        C  0.41644631  0.89511153  0.71622091    -0.10600
C604        C  0.39624079  0.88539579  0.73603164     0.22000
C605        C  0.37545467  0.88894192  0.71059897    -0.19900
C606        C  0.37464096  0.90295712  0.66791572    -0.10800
C607        C  0.39642546  0.87176358  0.78329479    -0.14900
C608        C  0.41144142  0.87612654  0.82035280    -0.28800
C609        C  0.39466056  0.92905038  0.60561486    -0.03100
C610        C  0.37703615  0.94305183  0.59503784    -0.39600
H611        H  0.43142946  0.91644405  0.65943991     0.13200
H612        H  0.43292750  0.89207188  0.73361771     0.12800
H613        H  0.35972488  0.88132222  0.72452247     0.12200
H614        H  0.35832799  0.90556725  0.64942323     0.12500
H615        H  0.38324824  0.85877989  0.78879361     0.15200
H616        H  0.42382788  0.88991691  0.81608317     0.14000
H617        H  0.41048308  0.93098922  0.58442701     0.11700
H618        H  0.36193484  0.94319743  0.61882058     0.13700
C619        C  0.40732719  0.90124703  0.17464033     0.19800
C620        C  0.41497033  0.89625221  0.22341751    -0.18300
C621        C  0.41132133  0.91167902  0.26291402    -0.10600
C622        C  0.40002529  0.93272136  0.25446424     0.22000
C623        C  0.39248241  0.93766918  0.20572840    -0.19900
C624        C  0.39611315  0.92230289  0.16640200    -0.10800
C625        C  0.39532809  0.95000551  0.29455174    -0.14900
C626        C  0.40347568  0.94908122  0.34174154    -0.28800
C627        C  0.41211306  0.88458643  0.13322656    -0.03100
C628        C  0.40148156  0.88500537  0.08826155    -0.39600
H629        H  0.42375055  0.88026385  0.23108880     0.13200
H630        H  0.41727916  0.90683410  0.29970733     0.12800
H631        H  0.38382713  0.95370064  0.19780421     0.12200
H632        H  0.39044334  0.92737051  0.12953825     0.12500
H633        H  0.38444309  0.96444066  0.28463415     0.15200
H634        H  0.41385243  0.93470824  0.35384761     0.14000
H635        H  0.42477941  0.87130547  0.14024808     0.11700
H636        H  0.38799939  0.89733165  0.08099403     0.13700
C637        C  0.37981883  0.11750215  0.75941003     0.19800
C638        C  0.36184114  0.10278515  0.74573820    -0.18300
C639        C  0.36248106  0.09082083  0.70051859    -0.10600
C640        C  0.38151896  0.09289825  0.66825116     0.22000
C641        C  0.39928810  0.10802580  0.68158043    -0.19900
C642        C  0.39851285  0.12018389  0.72663270    -0.10800
C643        C  0.38402688  0.07920096  0.62147169    -0.14900
C644        C  0.37099749  0.06082462  0.61025786    -0.28800
C645        C  0.37910083  0.12855634  0.80939988    -0.03100
C646        C  0.38932126  0.14868502  0.82001459    -0.39600
H647        H  0.34721323  0.10049450  0.77028590     0.13200
H648        H  0.34801954  0.07998366  0.69156253     0.12800
H649        H  0.41414155  0.11003554  0.65758258     0.12200
H650        H  0.41290931  0.13102684  0.73639712     0.12500
H651        H  0.39834752  0.08329709  0.59693093     0.15200
H652        H  0.35768444  0.05509677  0.63568528     0.14000
H653        H  0.36931206  0.11988728  0.83849083     0.11700
H654        H  0.39819534  0.15825386  0.79093765     0.13700
C655        C  0.38528912  0.11741672  0.18798230     0.19800
C656        C  0.39928355  0.12046029  0.23022055    -0.18300
C657        C  0.39871199  0.10476994  0.27000678    -0.10600
C658        C  0.38384746  0.08569841  0.26866513     0.22000
C659        C  0.36930653  0.08311349  0.22717270    -0.19900
C660        C  0.36989502  0.09878086  0.18743386    -0.10800
C661        C  0.38351236  0.06755985  0.30812526    -0.14900
C662        C  0.39403697  0.06911319  0.35286063    -0.28800
C663        C  0.38723933  0.13403408  0.14558636    -0.03100
C664        C  0.38048354  0.12936924  0.09847622    -0.39600
H665        H  0.41114215  0.13476948  0.23193992     0.13200
H666        H  0.41038770  0.10746665  0.30080583     0.12800
H667        H  0.35750840  0.06875602  0.22525553     0.12200
H668        H  0.35817609  0.09619308  0.15662778     0.12500
H669        H  0.37389004  0.05199759  0.30011948     0.15200
H670        H  0.40243497  0.08486087  0.36414270     0.14000
H671        H  0.39548957  0.15040601  0.15302296     0.11700
H672        H  0.37319490  0.11278113  0.08937312     0.13700
loop_ 
_geom_bond_atom_site_label_1 
_geom_bond_atom_site_label_2 
_geom_bond_distance 
_geom_bond_site_symmetry_2 
_ccdc_geom_bond_type 
N1            C6   1.353       .  A
N1            C5   1.353   1_545  A
N1           H33   1.039       .  S
N2            C9   1.353       .  A
N2           C10   1.353       .  A
N3            C8   1.354       .  A
N3            C7   1.357   1_545  A
N3           H34   1.042       .  S
N4           C11   1.355       .  A
N4           C12   1.352       .  A
C5           C13   1.388       .  A
C5           C21   1.414       .  A
C6           C22   1.414       .  A
C6           C14   1.388       .  A
C7           C15   1.388       .  A
C7           C24   1.423       .  A
C8           C23   1.420       .  A
C8           C16   1.387       .  A
C9           C21   1.414       .  A
C9           C17   1.385       .  A
C10          C24   1.416       .  A
C10          C18   1.387       .  A
C11          C19   1.385       .  A
C11          C22   1.415       .  A
C12          C20   1.387       .  A
C12          C23   1.415       .  A
C13          C14   1.373   1_565  A
C13          H25   1.083       .  S
C14          H26   1.083       .  S
C15          C16   1.376   1_565  A
C15          H27   1.082       .  S
C16          H28   1.082       .  S
C17          C18   1.373       .  A
C17          H29   1.082       .  S
C18          H30   1.082       .  S
C19          C20   1.373       .  A
C19          H31   1.082       .  S
C20          H32   1.082       .  S
C21         C610   1.486       .  S
C22         C644   1.491       .  S
C23         C662   1.492       .  S
C24         C626   1.500       .  S
O35          C38   1.264       .  A
O35         Cd40   2.480       .  S
C36         C664   1.479       .  S
C36          O45   1.266       .  A
C36          O41   1.265       .  A
O37          C43   1.266       .  A
O37         Cd40   2.477       .  S
C38         C646   1.480       .  S
C38          O46   1.264       .  A
C39         C572   1.482       .  S
C39          O44   1.265       .  A
C39          O42   1.263       .  A
Cd40         O47   2.448       .  S
Cd40         O46   2.496       .  S
Cd40         O45   2.490   1_556  S
Cd40         O41   2.471   1_556  S
Cd40         O44   2.529       .  S
Cd40         O42   2.472       .  S
C43         C590   1.474       .  S
C43          O47   1.264       .  A
O48          C51   1.265       .  A
O48         Cd53   2.524   1_554  S
C49         C608   1.477       .  S
C49          O58   1.263       .  A
C49          O54   1.266       .  A
O50          C56   1.264       .  A
O50         Cd53   2.455       .  S
C51         C628   1.487       .  S
C51          O59   1.265       .  A
C52         C536   1.475       .  S
C52          O57   1.263       .  A
C52          O55   1.266       .  A
Cd53         O60   2.475       .  S
Cd53         O59   2.491   1_556  S
Cd53         O58   2.448       .  S
Cd53         O54   2.513       .  S
Cd53         O57   2.476       .  S
Cd53         O55   2.466       .  S
C56         C556   1.474       .  S
C56          O60   1.264       .  A
N61          C66   1.356       .  A
N61          C65   1.354   1_565  A
N61          H93   1.041       .  S
N62          C69   1.351       .  A
N62          C70   1.353       .  A
N63          C68   1.353       .  A
N63          C67   1.353   1_565  A
N63          H94   1.040       .  S
N64          C71   1.353       .  A
N64          C72   1.351       .  A
C65          C73   1.389       .  A
C65          C81   1.420       .  A
C66          C82   1.415       .  A
C66          C74   1.386       .  A
C67          C75   1.386   1_545  A
C67          C84   1.411       .  A
C68          C83   1.417       .  A
C68          C76   1.389       .  A
C69          C81   1.414       .  A
C69          C77   1.387       .  A
C70          C84   1.412       .  A
C70          C78   1.385       .  A
C71          C79   1.386       .  A
C71          C82   1.414       .  A
C72          C80   1.385       .  A
C72          C83   1.411       .  A
C73          C74   1.376   1_545  A
C73          H85   1.082       .  S
C74          H86   1.083       .  S
C75          C76   1.374       .  A
C75          H87   1.083   1_565  S
C76          H88   1.082       .  S
C77          C78   1.376       .  A
C77          H89   1.082       .  S
C78          H90   1.082       .  S
C79          C80   1.374       .  A
C79          H91   1.082       .  S
C80          H92   1.082       .  S
C81         C520   1.492       .  S
C82         C464   1.496       .  S
C83         C482   1.491       .  S
C84         C500   1.487       .  S
O95          C98   1.265       .  A
O95        Cd100   2.460   1_554  S
C96         C502   1.478       .  S
C96         O105   1.264       .  A
C96         O101   1.265       .  A
O97         C103   1.267   1_556  A
O97        Cd100   2.504       .  S
C98         C518   1.475       .  S
C98         O106   1.266       .  A
C99         C446   1.474       .  S
C99         O104   1.266       .  A
C99         O102   1.263       .  A
Cd100       O107   2.441   1_556  S
Cd100       O106   2.481   1_556  S
Cd100       O105   2.479       .  S
Cd100       O101   2.469       .  S
Cd100       O104   2.483       .  S
Cd100       O102   2.458       .  S
C103        C592   1.474       .  S
C103        O107   1.262       .  A
O108        C111   1.265       .  A
O108       Cd113   2.485       .  S
C109        C466   1.481       .  S
C109        O118   1.267       .  A
C109        O114   1.263       .  A
O110        C116   1.265       .  A
O110       Cd113   2.433       .  S
C111        C484   1.480       .  S
C111        O119   1.265       .  A
C112        C428   1.481       .  S
C112        O117   1.265       .  A
C112        O115   1.264       .  A
Cd113       O120   2.464       .  S
Cd113       O119   2.479       .  S
Cd113       O118   2.490   1_556  S
Cd113       O114   2.477   1_556  S
Cd113       O117   2.503       .  S
Cd113       O115   2.464       .  S
C116        C554   1.468       .  S
C116        O120   1.269       .  A
N121        C126   1.356       .  A
N121        C125   1.357       .  A
N121        H153   1.035       .  S
N122        C129   1.352       .  A
N122        C130   1.352       .  A
N123        C128   1.355       .  A
N123        C127   1.352       .  A
N123        H154   1.041       .  S
N124        C131   1.352       .  A
N124        C132   1.354       .  A
C125        C133   1.386       .  A
C125        C141   1.418   1_455  A
C126        C142   1.418       .  A
C126        C134   1.387       .  A
C127        C135   1.387       .  A
C127        C144   1.416   1_455  A
C128        C143   1.416       .  A
C128        C136   1.386       .  A
C129        C141   1.412       .  A
C129        C137   1.387       .  A
C130        C144   1.412       .  A
C130        C138   1.386       .  A
C131        C139   1.387       .  A
C131        C142   1.413       .  A
C132        C140   1.385       .  A
C132        C143   1.412       .  A
C133        C134   1.374       .  A
C133        H145   1.082       .  S
C134        H146   1.082       .  S
C135        C136   1.377       .  A
C135        H147   1.082       .  S
C136        H148   1.082       .  S
C137        C138   1.373       .  A
C137        H149   1.082       .  S
C138        H150   1.082       .  S
C139        C140   1.374       .  A
C139        H151   1.082       .  S
C140        H152   1.082       .  S
C141        C374   1.494       .  S
C142        C394   1.494       .  S
C143        C410   1.496       .  S
C144        C358   1.488       .  S
O155        C158   1.266       .  A
O155       Cd160   2.479       .  S
C156        C392   1.475       .  S
C156        O165   1.263   1_556  A
C156        O161   1.265       .  A
O157        C163   1.266       .  A
O157       Cd160   2.500       .  S
C158        C412   1.481       .  S
C158        O166   1.265       .  A
C159        C574   1.484       .  S
C159        O164   1.265       .  A
C159        O162   1.265       .  A
Cd160       O167   2.469   1_554  S
Cd160       O166   2.485       .  S
Cd160       O165   2.470       .  S
Cd160       O161   2.478   1_554  S
Cd160       O164   2.492       .  S
Cd160       O162   2.488       .  S
C163        C340   1.479       .  S
C163        O167   1.263   1_554  A
O168        C171   1.267       .  A
O168       Cd173   2.483   1_556  S
C169        C356   1.479       .  S
C169        O178   1.263       .  A
C169        O174   1.266       .  A
O170        C176   1.264       .  A
O170       Cd173   2.464       .  S
C171        C376   1.476       .  S
C171        O179   1.264   1_556  A
C172        C448   1.482       .  S
C172        O177   1.262       .  A
C172        O175   1.263       .  A
Cd173       O180   2.482       .  S
Cd173       O179   2.456       .  S
Cd173       O178   2.462       .  S
Cd173       O174   2.497       .  S
Cd173       O177   2.499       .  S
Cd173       O175   2.501       .  S
C176        C320   1.479       .  S
C176        O180   1.267       .  A
N181        C186   1.356       .  A
N181        C185   1.351       .  A
N181        H213   1.039       .  S
N182        C189   1.351       .  A
N182        C190   1.352       .  A
N183        C188   1.354       .  A
N183        C187   1.354       .  A
N183        H214   1.039       .  S
N184        C191   1.350       .  A
N184        C192   1.348       .  A
C185        C193   1.388       .  A
C185        C201   1.416       .  A
C186        C202   1.413       .  A
C186        C194   1.385       .  A
C187        C195   1.385       .  A
C187        C204   1.412       .  A
C188        C203   1.417       .  A
C188        C196   1.388       .  A
C189        C201   1.412       .  A
C189        C197   1.387       .  A
C190        C204   1.413       .  A
C190        C198   1.386       .  A
C191        C199   1.386   1_455  A
C191        C202   1.408       .  A
C192        C200   1.387   1_455  A
C192        C203   1.407       .  A
C193        C194   1.374       .  A
C193        H205   1.082       .  S
C194        H206   1.081       .  S
C195        C196   1.374       .  A
C195        H207   1.082       .  S
C196        H208   1.082       .  S
C197        C198   1.374       .  A
C197        H209   1.082       .  S
C198        H210   1.082       .  S
C199        C200   1.374       .  A
C199        H211   1.082       .  S
C200        H212   1.082       .  S
C201        C304   1.488       .  S
C202        C266   1.486   1_455  S
C203        C250   1.486   1_455  S
C204        C284   1.489       .  S
O215        C218   1.266       .  A
O215       Cd220   2.468   1_556  S
C216        C302   1.473       .  S
C216        O225   1.267       .  A
C216        O221   1.265       .  A
O217        C223   1.266       .  A
O217       Cd220   2.493       .  S
C218        C286   1.472       .  S
C218        O226   1.263       .  A
C219        C538   1.472       .  S
C219        O224   1.265   1_554  A
C219        O222   1.261       .  A
Cd220       O227   2.458       .  S
Cd220       O226   2.450   1_554  S
Cd220       O225   2.460       .  S
Cd220       O221   2.455       .  S
Cd220       O224   2.488   1_554  S
Cd220       O222   2.461       .  S
C223        C338   1.481       .  S
C223        O227   1.265       .  A
O228        C231   1.267       .  A
O228       Cd233   2.484       .  S
C229        C248   1.475       .  S
C229        O238   1.264       .  A
C229        O234   1.265       .  A
O230        C236   1.266   1_554  A
O230       Cd233   2.497       .  S
C231        C268   1.479       .  S
C231        O239   1.265       .  A
C232        C430   1.479       .  S
C232        O237   1.265   1_554  A
C232        O235   1.262       .  A
Cd233       O240   2.466   1_554  S
Cd233       O239   2.474       .  S
Cd233       O238   2.478   1_554  S
Cd233       O234   2.482   1_554  S
Cd233       O237   2.515   1_554  S
Cd233       O235   2.463       .  S
C236        C322   1.479       .  S
C236        O240   1.263       .  A
C241        C242   1.403       .  A
C241        C246   1.409       .  A
C241        C249   1.486       .  S
C242        C243   1.395       .  A
C242        H251   1.084       .  S
C243        C244   1.406       .  A
C243        H252   1.081       .  S
C244        C245   1.404       .  A
C244        C247   1.487       .  S
C245        C246   1.399       .  A
C245        H253   1.083       .  S
C246        H254   1.079       .  S
C247        H255   1.087       .  S
C247        C248   1.347       .  D
C248        H256   1.084       .  S
C249        H257   1.088       .  S
C249        C250   1.344       .  D
C250        H258   1.083       .  S
C259        C260   1.404       .  A
C259        C264   1.409       .  A
C259        C267   1.491       .  S
C260        C261   1.398       .  A
C260        H269   1.083       .  S
C261        C262   1.407       .  A
C261        H270   1.082       .  S
C262        C263   1.404       .  A
C262        C265   1.488       .  S
C263        C264   1.401       .  A
C263        H271   1.083       .  S
C264        H272   1.081       .  S
C265        H273   1.087       .  S
C265        C266   1.345       .  D
C266        H274   1.084       .  S
C267        H275   1.087       .  S
C267        C268   1.347       .  D
C268        H276   1.084       .  S
C277        C278   1.402       .  A
C277        C282   1.408       .  A
C277        C285   1.484       .  S
C278        C279   1.398       .  A
C278        H287   1.083       .  S
C279        C280   1.407       .  A
C279        H288   1.082       .  S
C280        C281   1.402       .  A
C280        C283   1.485       .  S
C281        C282   1.398       .  A
C281        H289   1.083       .  S
C282        H290   1.082       .  S
C283        H291   1.087       .  S
C283        C284   1.345       .  D
C284        H292   1.086       .  S
C285        H293   1.087       .  S
C285        C286   1.343       .  D
C286        H294   1.085       .  S
C295        C296   1.403       .  A
C295        C300   1.406       .  A
C295        C303   1.484       .  S
C296        C297   1.397       .  A
C296        H305   1.084       .  S
C297        C298   1.409       .  A
C297        H306   1.079       .  S
C298        C299   1.404       .  A
C298        C301   1.489       .  S
C299        C300   1.397       .  A
C299        H307   1.083       .  S
C300        H308   1.080       .  S
C301        H309   1.087       .  S
C301        C302   1.346       .  D
C302        H310   1.082       .  S
C303        H311   1.088       .  S
C303        C304   1.347       .  D
C304        H312   1.083       .  S
C313        C314   1.405       .  A
C313        C318   1.410   1_554  A
C313        C321   1.497       .  S
C314        C315   1.401       .  A
C314        H323   1.083       .  S
C315        C316   1.410       .  A
C315        H324   1.079       .  S
C316        C317   1.404   1_554  A
C316        C319   1.495       .  S
C317        C318   1.399       .  A
C317        H325   1.084       .  S
C318        H326   1.079       .  S
C319        H327   1.087   1_554  S
C319        C320   1.347       .  D
C320        H328   1.082       .  S
C321        H329   1.087       .  S
C321        C322   1.349   1_554  D
C322        H330   1.082       .  S
C331        C332   1.406       .  A
C331        C336   1.407   1_554  A
C331        C339   1.493       .  S
C332        C333   1.404       .  A
C332        H341   1.083       .  S
C333        C334   1.408       .  A
C333        H342   1.082       .  S
C334        C335   1.403   1_554  A
C334        C337   1.489       .  S
C335        C336   1.398       .  A
C335        H343   1.084       .  S
C336        H344   1.081       .  S
C337        H345   1.087   1_554  S
C337        C338   1.347       .  D
C338        H346   1.085       .  S
C339        H347   1.087       .  S
C339        C340   1.348       .  D
C340        H348   1.085   1_554  S
C349        C350   1.405       .  A
C349        C354   1.406       .  A
C349        C357   1.487       .  S
C350        C351   1.402       .  A
C350        H359   1.083       .  S
C351        C352   1.408       .  A
C351        H360   1.082       .  S
C352        C353   1.403       .  A
C352        C355   1.488       .  S
C353        C354   1.397       .  A
C353        H361   1.083       .  S
C354        H362   1.082       .  S
C355        H363   1.087       .  S
C355        C356   1.347       .  D
C356        H364   1.085       .  S
C357        H365   1.087       .  S
C357        C358   1.347       .  D
C358        H366   1.085       .  S
C367        C368   1.403       .  A
C367        C372   1.410       .  A
C367        C375   1.492       .  S
C368        C369   1.398       .  A
C368        H377   1.083       .  S
C369        C370   1.408       .  A
C369        H378   1.080       .  S
C370        C371   1.404       .  A
C370        C373   1.491       .  S
C371        C372   1.400       .  A
C371        H379   1.083       .  S
C372        H380   1.080       .  S
C373        H381   1.087       .  S
C373        C374   1.348       .  D
C374        H382   1.084       .  S
C375        H383   1.087       .  S
C375        C376   1.346       .  D
C376        H384   1.083       .  S
C385        C386   1.403       .  A
C385        C390   1.407       .  A
C385        C393   1.486       .  S
C386        C387   1.398       .  A
C386        H395   1.083       .  S
C387        C388   1.408       .  A
C387        H396   1.081       .  S
C388        C389   1.404       .  A
C388        C391   1.489       .  S
C389        C390   1.399       .  A
C389        H397   1.083       .  S
C390        H398   1.082       .  S
C391        H399   1.087       .  S
C391        C392   1.346       .  D
C392        H400   1.084       .  S
C393        H401   1.087       .  S
C393        C394   1.347       .  D
C394        H402   1.085       .  S
C403        C404   1.405       .  A
C403        C408   1.409       .  A
C403        C411   1.493       .  S
C404        C405   1.401       .  A
C404        H413   1.083       .  S
C405        C406   1.407       .  A
C405        H414   1.082       .  S
C406        C407   1.406       .  A
C406        C409   1.493       .  S
C407        C408   1.403       .  A
C407        H415   1.083       .  S
C408        H416   1.081       .  S
C409        H417   1.087       .  S
C409        C410   1.349       .  D
C410        H418   1.085       .  S
C411        H419   1.087       .  S
C411        C412   1.348       .  D
C412        H420   1.085       .  S
C421        C422   1.407       .  A
C421        C426   1.409   1_556  A
C421        C429   1.497       .  S
C422        C423   1.404       .  A
C422        H431   1.083       .  S
C423        C424   1.408       .  A
C423        H432   1.081       .  S
C424        C425   1.402   1_556  A
C424        C427   1.489       .  S
C425        C426   1.397       .  A
C425        H433   1.084       .  S
C426        H434   1.080       .  S
C427        H435   1.087   1_556  S
C427        C428   1.347       .  D
C428        H436   1.085       .  S
C429        H437   1.087       .  S
C429        C430   1.349   1_556  D
C430        H438   1.082       .  S
C439        C440   1.405   1_554  A
C439        C444   1.410       .  A
C439        C447   1.493       .  S
C440        C441   1.398       .  A
C440        H449   1.083       .  S
C441        C442   1.405       .  A
C441        H450   1.082       .  S
C442        C443   1.403   1_556  A
C442        C445   1.487       .  S
C443        C444   1.402       .  A
C443        H451   1.083       .  S
C444        H452   1.080       .  S
C445        H453   1.087   1_556  S
C445        C446   1.346       .  D
C446        H454   1.086       .  S
C447        H455   1.087   1_554  S
C447        C448   1.348       .  D
C448        H456   1.084       .  S
C457        C458   1.405       .  A
C457        C462   1.411       .  A
C457        C465   1.496       .  S
C458        C459   1.399       .  A
C458        H467   1.083       .  S
C459        C460   1.406       .  A
C459        H468   1.082       .  S
C460        C461   1.405       .  A
C460        C463   1.492       .  S
C461        C462   1.404       .  A
C461        H469   1.083       .  S
C462        H470   1.080       .  S
C463        H471   1.087       .  S
C463        C464   1.350       .  D
C464        H472   1.086       .  S
C465        H473   1.087       .  S
C465        C466   1.348       .  D
C466        H474   1.083       .  S
C475        C476   1.404       .  A
C475        C480   1.408       .  A
C475        C483   1.493       .  S
C476        C477   1.398       .  A
C476        H485   1.083       .  S
C477        C478   1.408       .  A
C477        H486   1.080       .  S
C478        C479   1.405       .  A
C478        C481   1.490       .  S
C479        C480   1.401       .  A
C479        H487   1.084       .  S
C480        H488   1.080       .  S
C481        H489   1.087       .  S
C481        C482   1.347       .  D
C482        H490   1.084       .  S
C483        H491   1.087       .  S
C483        C484   1.349       .  D
C484        H492   1.083       .  S
C493        C494   1.404       .  A
C493        C498   1.410       .  A
C493        C501   1.492       .  S
C494        C495   1.398       .  A
C494        H503   1.084       .  S
C495        C496   1.407       .  A
C495        H504   1.082       .  S
C496        C497   1.403       .  A
C496        C499   1.490       .  S
C497        C498   1.402       .  A
C497        H505   1.083       .  S
C498        H506   1.079       .  S
C499        H507   1.087       .  S
C499        C500   1.346       .  D
C500        H508   1.085       .  S
C501        H509   1.087       .  S
C501        C502   1.347       .  D
C502        H510   1.082       .  S
C511        C512   1.404       .  A
C511        C516   1.410       .  A
C511        C519   1.489       .  S
C512        C513   1.398       .  A
C512        H521   1.083       .  S
C513        C514   1.405       .  A
C513        H522   1.082       .  S
C514        C515   1.403       .  A
C514        C517   1.486       .  S
C515        C516   1.401       .  A
C515        H523   1.083       .  S
C516        H524   1.081       .  S
C517        H525   1.087       .  S
C517        C518   1.346       .  D
C518        H526   1.086       .  S
C519        H527   1.088       .  S
C519        C520   1.347       .  D
C520        H528   1.084       .  S
C529        C530   1.403       .  A
C529        C534   1.405   1_556  A
C529        C537   1.484       .  S
C530        C531   1.400       .  A
C530        H539   1.083       .  S
C531        C532   1.410       .  A
C531        H540   1.081       .  S
C532        C533   1.403   1_556  A
C532        C535   1.487       .  S
C533        C534   1.396       .  A
C533        H541   1.083       .  S
C534        H542   1.082       .  S
C535        H543   1.087   1_556  S
C535        C536   1.345       .  D
C536        H544   1.084       .  S
C537        H545   1.087       .  S
C537        C538   1.345   1_556  D
C538        H546   1.086       .  S
C547        C548   1.404       .  A
C547        C552   1.410       .  A
C547        C555   1.487       .  S
C548        C549   1.394       .  A
C548        H557   1.083       .  S
C549        C550   1.404       .  A
C549        H558   1.083       .  S
C550        C551   1.401       .  A
C550        C553   1.479       .  S
C551        C552   1.399       .  A
C551        H559   1.083       .  S
C552        H560   1.080       .  S
C553        H561   1.087       .  S
C553        C554   1.343       .  D
C554        H562   1.086       .  S
C555        H563   1.087       .  S
C555        C556   1.346       .  D
C556        H564   1.083       .  S
C565        C566   1.405   1_554  A
C565        C570   1.411       .  A
C565        C573   1.497       .  S
C566        C567   1.399       .  A
C566        H575   1.083       .  S
C567        C568   1.406   1_556  A
C567        H576   1.082       .  S
C568        C569   1.405       .  A
C568        C571   1.494       .  S
C569        C570   1.406       .  A
C569        H577   1.083       .  S
C570        H578   1.081       .  S
C571        H579   1.087       .  S
C571        C572   1.349   1_554  D
C572        H580   1.086       .  S
C573        H581   1.087   1_554  S
C573        C574   1.349       .  D
C574        H582   1.083       .  S
C583        C584   1.403   1_554  A
C583        C588   1.410       .  A
C583        C591   1.491   1_554  S
C584        C585   1.398       .  A
C584        H593   1.083       .  S
C585        C586   1.406   1_556  A
C585        H594   1.082       .  S
C586        C587   1.402       .  A
C586        C589   1.484       .  S
C587        C588   1.398       .  A
C587        H595   1.084       .  S
C588        H596   1.081       .  S
C589        H597   1.087       .  S
C589        C590   1.346   1_554  D
C590        H598   1.085       .  S
C591        H599   1.087       .  S
C591        C592   1.345   1_556  D
C592        H600   1.083       .  S
C601        C602   1.401       .  A
C601        C606   1.407       .  A
C601        C609   1.484       .  S
C602        C603   1.397       .  A
C602        H611   1.084       .  S
C603        C604   1.408       .  A
C603        H612   1.082       .  S
C604        C605   1.405       .  A
C604        C607   1.490       .  S
C605        C606   1.402       .  A
C605        H613   1.083       .  S
C606        H614   1.082       .  S
C607        H615   1.087       .  S
C607        C608   1.347       .  D
C608        H616   1.085       .  S
C609        H617   1.088       .  S
C609        C610   1.343       .  D
C610        H618   1.086       .  S
C619        C620   1.408       .  A
C619        C624   1.409       .  A
C619        C627   1.502       .  S
C620        C621   1.406       .  A
C620        H629   1.083       .  S
C621        C622   1.411       .  A
C621        H630   1.080       .  S
C622        C623   1.404       .  A
C622        C625   1.500       .  S
C623        C624   1.400       .  A
C623        H631   1.083       .  S
C624        H632   1.080       .  S
C625        H633   1.087       .  S
C625        C626   1.349       .  D
C626        H634   1.083       .  S
C627        H635   1.087       .  S
C627        C628   1.353       .  D
C628        H636   1.083       .  S
C637        C638   1.402       .  A
C637        C642   1.406       .  A
C637        C645   1.487       .  S
C638        C639   1.399       .  A
C638        H647   1.084       .  S
C639        C640   1.410       .  A
C639        H648   1.080       .  S
C640        C641   1.406       .  A
C640        C643   1.494       .  S
C641        C642   1.401       .  A
C641        H649   1.083       .  S
C642        H650   1.082       .  S
C643        H651   1.087       .  S
C643        C644   1.347       .  D
C644        H652   1.083       .  S
C645        H653   1.087       .  S
C645        C646   1.346       .  D
C646        H654   1.086       .  S
C655        C656   1.405       .  A
C655        C660   1.408       .  A
C655        C663   1.493       .  S
C656        C657   1.401       .  A
C656        H665   1.083       .  S
C657        C658   1.409       .  A
C657        H666   1.080       .  S
C658        C659   1.404       .  A
C658        C661   1.491       .  S
C659        C660   1.399       .  A
C659        H667   1.084       .  S
C660        H668   1.081       .  S
C661        H669   1.088       .  S
C661        C662   1.347       .  D
C662        H670   1.083       .  S
C663        H671   1.087       .  S
C663        C664   1.348       .  D
C664        H672   1.084       .  S
