geometry optimzed in LAMMPS
_audit_creation_date              2020-11-30 
_audit_creation_method            'lammps2cif' 
_symmetry_space_group_name_H-M    'P1' 
_symmetry_Int_Tables_number       1 
_symmetry_cell_setting            triclinic 
loop_ 
_symmetry_equiv_pos_as_xyz 
  x,y,z 
_cell_length_a                    44.08481482 
_cell_length_b                    33.51243723997927 
_cell_length_c                    34.053242628213 
_cell_angle_alpha                 89.90537542778324 
_cell_angle_beta                  90.35129125559108 
_cell_angle_gamma                 90.05267031885701 
loop_ 
_atom_site_label 
_atom_site_type_symbol 
_atom_site_fract_x 
_atom_site_fract_y 
_atom_site_fract_z 
_atom_site_charge 
C1          C  0.99442128  0.97409277  0.03344142     0.01700
C2          C  0.46699491  0.98766574  0.01680669     0.01700
C3          C  0.46745316  0.01651181  0.98698555     0.01700
C4          C  0.49536801  0.02999876  0.97173867     0.01700
C5          C  0.02315296  0.01609507  0.98803620     0.01700
C6          C  0.02262609  0.98705382  0.01830411     0.01700
Fe7        Fe  0.46416418  0.25273002  0.67244129     1.65800
Fe8        Fe  0.04138806  0.24828222  0.67216983     1.73200
Fe9        Fe  0.50197325  0.24740117  0.58494929     1.54400
O10         O  0.47072158  0.20111115  0.58403047    -0.82300
O11         O  0.06130519  0.28832148  0.63445975    -0.80600
O12         O  0.44311928  0.21036020  0.63784009    -0.84800
O13         O  0.44794275  0.29881408  0.63849423    -0.79600
O14         O  0.03613157  0.20493182  0.58162382    -0.81400
O15         O  0.03036984  0.29558293  0.70802297    -0.84100
C16         C  0.44974327  0.30723345  0.60234959     0.96600
C17         C  0.44847252  0.19214087  0.60596566     1.04100
O18         O  0.00251571  0.24946160  0.64319616    -1.13100
O19         O  0.02634475  0.20879960  0.71416010    -0.75500
O20         O  0.47590460  0.20763300  0.71082160    -0.79000
O21         O  0.46751232  0.28927361  0.57910656    -0.79700
C22         C  0.00081700  0.19621004  0.72591025     0.95500
O23         O  0.47996581  0.29502941  0.71119223    -0.77700
O24         O  0.05751626  0.20043659  0.64074823    -0.82900
C25         C  0.05568440  0.30423602  0.60136082     0.98200
C26         C  0.05487724  0.18904181  0.60541388     1.04100
O27         O  0.03330821  0.29361111  0.57998952    -0.78500
C28         C  0.50560775  0.30828103  0.72203930     1.02400
C29         C  0.49800155  0.47431540  0.96632939     0.01700
C30         C  0.02590959  0.48675630  0.98294532     0.01700
C31         C  0.02611380  0.51332421  0.01491572     0.01700
C32         C  0.49847828  0.52625784  0.03134583     0.01700
C33         C  0.47047821  0.51453415  0.01423684     0.01700
C34         C  0.47031099  0.48720609  0.98269818     0.01700
Fe35       Fe  0.46147545  0.75007788  0.32818768     1.65800
Fe36       Fe  0.03815928  0.74911339  0.32686510     1.73200
Fe37       Fe  0.50106792  0.74900170  0.41455442     1.54400
O38         O  0.47163129  0.79721750  0.41859330    -0.82300
O39         O  0.05953701  0.71025028  0.36452142    -0.80600
O40         O  0.44114258  0.78800342  0.36720194    -0.84800
O41         O  0.44600419  0.70099888  0.35811154    -0.79600
O42         O  0.03712528  0.78934977  0.41786770    -0.81400
O43         O  0.02514943  0.70052196  0.29355831    -0.84100
C44         C  0.44747574  0.69115723  0.39406809     0.96600
C45         C  0.44801983  0.80589420  0.39876655     1.04100
O46         O  0.00025288  0.74940482  0.35667505    -1.13100
O47         O  0.02215019  0.78743167  0.28421400    -0.75500
O48         O  0.47335528  0.79923283  0.29546876    -0.79000
O49         O  0.46521040  0.70845053  0.41838466    -0.79700
C50         C  0.99761308  0.80571840  0.27669647     0.95500
O51         O  0.47606360  0.71259100  0.28425645    -0.77700
O52         O  0.05477738  0.79773941  0.35716749    -0.82900
C53         C  0.05349501  0.69218133  0.39623557     0.98200
C54         C  0.05431107  0.80696245  0.39333102     1.04100
O55         O  0.03054986  0.70084879  0.41693424    -0.78500
C56         C  0.50027251  0.69424662  0.27565001     1.02400
C57         C  0.25275726  0.97321789  0.46710284     0.01700
C58         C  0.22470429  0.98599934  0.48243623     0.01700
C59         C  0.22421118  0.01368124  0.51340637     0.01700
C60         C  0.25170043  0.02638846  0.53092481     0.01700
C61         C  0.27980978  0.01343590  0.51579332     0.01300
C62         C  0.28034116  0.98599351  0.48447994     0.01700
Fe63       Fe  0.28710290  0.74734231  0.17101480     1.65800
Fe64       Fe  0.20990121  0.75122792  0.17330327     1.73200
Fe65       Fe  0.24655340  0.75014724  0.08502750     1.54400
O66         O  0.27594883  0.79828113  0.08215096    -0.82300
O67         O  0.18900880  0.70993846  0.13701986    -0.80600
O68         O  0.30618536  0.78953934  0.13430612    -0.84800
O69         O  0.30257766  0.70072158  0.13763605    -0.79600
O70         O  0.21044458  0.78958628  0.08129861    -0.81400
O71         O  0.22239601  0.70503338  0.20988044    -0.84100
C72         C  0.30060762  0.69283361  0.10140600     0.96600
C73         C  0.29898916  0.80775785  0.10281714     1.04100
O74         O  0.24785066  0.74954255  0.14320568    -1.13100
O75         O  0.22601407  0.79210337  0.21336180    -0.75500
O76         O  0.27638418  0.79290910  0.20878009    -0.79000
O77         O  0.28242462  0.71076743  0.07842777    -0.79700
C78         C  0.25185441  0.80500083  0.22388697     0.95500
O79         O  0.27291710  0.70577815  0.21162968    -0.77700
O80         O  0.19280482  0.79849123  0.14165825    -0.82900
C81         C  0.19465806  0.69251955  0.10472068     0.98200
C82         C  0.19315522  0.80698345  0.10546194     1.04100
O83         O  0.21699010  0.70213661  0.08315017    -0.78500
C84         C  0.24755192  0.69293739  0.22368939     1.02400
C85         C  0.25053968  0.47440531  0.53360343     0.01700
C86         C  0.27860268  0.48666939  0.51760209     0.01700
C87         C  0.27888753  0.51430567  0.48633624     0.01700
C88         C  0.25132298  0.52773363  0.46970658     0.01700
C89         C  0.22337827  0.51530561  0.48566596     0.01700
C90         C  0.22294195  0.48758033  0.51672439     0.01700
Fe91       Fe  0.28447154  0.25111829  0.82757192     1.65800
Fe92       Fe  0.20726162  0.24496726  0.82719907     1.73200
Fe93       Fe  0.24605511  0.25289818  0.91477131     1.54400
O94         O  0.27916815  0.20908462  0.91983854    -0.82300
O95         O  0.18739590  0.29019510  0.85908236    -0.80600
O96         O  0.30266908  0.20643904  0.86190711    -0.84800
O97         O  0.30364460  0.29474013  0.86185738    -0.79600
O98         O  0.21348206  0.20878320  0.92161662    -0.81400
O99         O  0.21964969  0.28690521  0.78580858    -0.84100
C100        C  0.29922936  0.30997848  0.89526317     0.96600
C101        C  0.29884039  0.19418279  0.89687049     1.04100
O102        O  0.24590178  0.24963714  0.85656452    -1.13100
O103        O  0.22198560  0.19961475  0.79130925    -0.75500
O104        O  0.27178476  0.20839316  0.78748580    -0.79000
O105        O  0.27828143  0.29794326  0.91770818    -0.79700
C106        C  0.24751989  0.19142325  0.77651427     0.95500
O107        O  0.26973346  0.29561107  0.79046685    -0.77700
O108        O  0.19014338  0.20173875  0.86387595    -0.82900
C109        C  0.19200098  0.30725373  0.89187721     0.98200
C110        C  0.19400395  0.19208460  0.89951385     1.04100
O111        O  0.21320521  0.29690481  0.91522024    -0.78500
C112        C  0.24411627  0.30372523  0.77526973     1.02400
C113        C  0.24918266  0.44558493  0.64039680    -0.11400
C114        C  0.24644930  0.40397280  0.63826190     0.05700
C115        C  0.24538429  0.38528147  0.60134069    -0.10200
C116        C  0.24723007  0.40800397  0.56699235    -0.11800
C117        C  0.24984200  0.44955821  0.56935837    -0.01600
C118        C  0.25055658  0.46825017  0.60613814    -0.10700
C119        C  0.24476484  0.38015100  0.67456945     0.05700
H120        H  0.24341078  0.35314810  0.59917533     0.07700
H121        H  0.24638420  0.39337481  0.53866808     0.11100
H122        H  0.25217096  0.50043671  0.60818252     0.11400
H123        H  0.24977193  0.46053403  0.66857157     0.07700
C124        C  0.26663836  0.38505218  0.70429937    -0.11400
C125        C  0.26594705  0.36103253  0.73781639    -0.10700
C126        C  0.24300731  0.33232955  0.74241823    -0.01600
C127        C  0.22044890  0.32860229  0.71331404    -0.11800
C128        C  0.22149945  0.35207142  0.67947464    -0.10200
H129        H  0.28477916  0.40659379  0.70098366     0.07700
H130        H  0.28360090  0.36443475  0.75982792     0.11400
H131        H  0.20267099  0.30645246  0.71598170     0.11100
H132        H  0.20424883  0.34819405  0.65699900     0.07700
C133        C  0.24360596  0.61481551  0.39948896    -0.11400
C134        C  0.25069408  0.59648924  0.36358167     0.05700
C135        C  0.25848586  0.55595470  0.36303829    -0.10200
C136        C  0.25867591  0.53387973  0.39774285    -0.11800
C137        C  0.25179566  0.55220552  0.43356859    -0.01600
C138        C  0.24436925  0.59282276  0.43438637    -0.10700
C139        C  0.24939023  0.61935620  0.32658472     0.05700
H140        H  0.26369146  0.54119567  0.33562246     0.07700
H141        H  0.26389292  0.50232657  0.39669261     0.11100
H142        H  0.23884486  0.60721467  0.46187986     0.11400
H143        H  0.23763773  0.64613700  0.40047626     0.07700
C144        C  0.22353368  0.64183077  0.31720269    -0.11400
C145        C  0.22237928  0.66405881  0.28255553    -0.10700
C146        C  0.24730494  0.66477836  0.25702512    -0.01600
C147        C  0.27302250  0.64173594  0.26615616    -0.11800
C148        C  0.27392231  0.61886141  0.30049275    -0.10200
H149        H  0.20425258  0.64223555  0.33677742     0.07700
H150        H  0.20241789  0.68191299  0.27651772     0.11400
H151        H  0.29259375  0.64192804  0.24708284     0.11100
H152        H  0.29409342  0.60168543  0.30727250     0.07700
C153        C  0.22836153  0.88002348  0.30041658    -0.11400
C154        C  0.25419593  0.88097280  0.32469731     0.05700
C155        C  0.27992187  0.85894453  0.31417570    -0.10200
C156        C  0.27963841  0.83571101  0.28021752    -0.11800
C157        C  0.25343449  0.83364535  0.25659222    -0.01600
C158        C  0.22789390  0.85630162  0.26679189    -0.10700
C159        C  0.25405407  0.90438125  0.36129806     0.05700
H160        H  0.30017146  0.85958907  0.33235632     0.07700
H161        H  0.29953826  0.81823191  0.27324784     0.11100
H162        H  0.20738989  0.85514440  0.24913610     0.11400
H163        H  0.20822118  0.89668084  0.30813636     0.07700
C164        C  0.24372466  0.94394599  0.36094227    -0.11400
C165        C  0.24335579  0.96606084  0.39552595    -0.10700
C166        C  0.25294861  0.94880245  0.43100855    -0.01600
C167        C  0.26304405  0.90917631  0.43160846    -0.11800
C168        C  0.26381885  0.88715487  0.39685173    -0.10200
H169        H  0.23631508  0.95786136  0.33380551     0.07700
H170        H  0.23573546  0.99677155  0.39467206     0.11400
H171        H  0.27041548  0.89550351  0.45887735     0.11100
H172        H  0.27160255  0.85652662  0.39777539     0.07700
C173        C  0.25988687  0.11209084  0.60245368    -0.11400
C174        C  0.25025402  0.09398229  0.63750920     0.05700
C175        C  0.24095781  0.05398607  0.63712164    -0.10200
C176        C  0.24159239  0.03224997  0.60230542    -0.11800
C177        C  0.25081137  0.05043888  0.56723923    -0.01600
C178        C  0.25991494  0.09049988  0.56738618    -0.10700
C179        C  0.25004852  0.11668936  0.67452396     0.05700
H180        H  0.23376961  0.03940930  0.66391412     0.07700
H181        H  0.23506809  0.00108839  0.60267135     0.11100
H182        H  0.26723838  0.10478890  0.54051106     0.11400
H183        H  0.26705175  0.14300871  0.60220618     0.07700
C184        C  0.27599299  0.13758602  0.68662592    -0.11400
C185        C  0.27557047  0.16022316  0.72094116    -0.10700
C186        C  0.24901360  0.16286620  0.74352128    -0.01600
C187        C  0.22324947  0.14107081  0.73179754    -0.11800
C188        C  0.22384787  0.11794354  0.69770185    -0.10200
H189        H  0.29653129  0.13657625  0.66934067     0.07700
H190        H  0.29577648  0.17676227  0.72900247     0.11400
H191        H  0.20243749  0.14259138  0.74845529     0.11100
H192        H  0.20357788  0.10198814  0.68875557     0.07700
C193        C  0.09412541  0.61486936  0.45901890    -0.11400
C194        C  0.11832855  0.60408840  0.43443719     0.05700
C195        C  0.11988683  0.62082825  0.39671537    -0.10200
C196        C  0.09833180  0.64850236  0.38420739    -0.11800
C197        C  0.07464467  0.66034267  0.40912093    -0.01600
C198        C  0.07243902  0.64269727  0.44645187    -0.10700
C199        C  0.14314230  0.57778329  0.44868796     0.05700
H200        H  0.13846705  0.61371388  0.37728987     0.07700
H201        H  0.10070276  0.66130281  0.35516515     0.11100
H202        H  0.05440648  0.65104341  0.46625587     0.11400
H203        H  0.09216135  0.60211425  0.48812708     0.07700
C204        C  0.15476886  0.58236905  0.48692443    -0.11400
C205        C  0.18029873  0.56098153  0.49902177    -0.10700
C206        C  0.19470477  0.53470839  0.47315841    -0.01600
C207        C  0.18257907  0.52876411  0.43550349    -0.11800
C208        C  0.15698403  0.55016438  0.42333184    -0.10200
H209        H  0.14494715  0.60375495  0.50695263     0.07700
H210        H  0.18948180  0.56587489  0.52820316     0.11400
H211        H  0.19330337  0.50823491  0.41537540     0.11100
H212        H  0.14828297  0.54556768  0.39388473     0.07700
C213        C  0.40520154  0.62012516  0.46145971    -0.11400
C214        C  0.38379917  0.60323270  0.43558489     0.05700
C215        C  0.38493174  0.61340869  0.39560682    -0.10200
C216        C  0.40622022  0.64097902  0.38202722    -0.11800
C217        C  0.42694142  0.65908225  0.40810988    -0.01600
C218        C  0.42657240  0.64771570  0.44786647    -0.10700
C219        C  0.35892548  0.57753357  0.45049302     0.05700
H220        H  0.36852309  0.60129560  0.37502930     0.07700
H221        H  0.40582197  0.64893221  0.35119846     0.11100
H222        H  0.44230259  0.66086074  0.46870219     0.11400
H223        H  0.40508200  0.61246956  0.49236138     0.07700
C224        C  0.34909112  0.54387767  0.42925407    -0.11400
C225        C  0.32369737  0.52219804  0.44147416    -0.10700
C226        C  0.30771619  0.53393654  0.47499341    -0.01600
C227        C  0.31801464  0.56663501  0.49690921    -0.11800
C228        C  0.34339657  0.58823473  0.48482887    -0.10200
H229        H  0.36078362  0.53470940  0.40290165     0.07700
H230        H  0.31612323  0.49688912  0.42431255     0.11400
H231        H  0.30578557  0.57614648  0.52275051     0.11100
H232        H  0.35012162  0.61430840  0.50149103     0.07700
C233        C  0.34715297  0.95054643  0.42415740    -0.11400
C234        C  0.36138304  0.92406582  0.45060784     0.05700
C235        C  0.35041921  0.92123106  0.48912819    -0.10200
C236        C  0.32469138  0.94258348  0.50025366    -0.11800
C237        C  0.30958037  0.96729689  0.47318352    -0.01600
C238        C  0.32151021  0.97211601  0.43541164    -0.10700
C239        C  0.38518497  0.89621363  0.43685236     0.05700
H240        H  0.36070175  0.90083581  0.50999377     0.07700
H241        H  0.31579099  0.93861209  0.52958347     0.11100
H242        H  0.31037742  0.99150309  0.41433673     0.11400
H243        H  0.35537672  0.95367420  0.39441104     0.07700
C244        C  0.38107629  0.87631113  0.40104561    -0.11400
C245        C  0.40171396  0.84755608  0.38886316    -0.10700
C246        C  0.42715623  0.83778047  0.41211948    -0.01600
C247        C  0.43168455  0.85816681  0.44774862    -0.11800
C248        C  0.41077898  0.88704468  0.46009521    -0.10200
H249        H  0.36128592  0.88206690  0.38289308     0.07700
H250        H  0.39737663  0.83256628  0.36124377     0.11400
H251        H  0.45106643  0.85142644  0.46627652     0.11100
H252        H  0.41448312  0.90202705  0.48786387     0.07700
C253        C  0.11322528  0.88994821  0.39364582    -0.11400
C254        C  0.11969153  0.89398233  0.43390408     0.05700
C255        C  0.10285513  0.87118663  0.46084555    -0.10200
C256        C  0.08090212  0.84396527  0.44780373    -0.11800
C257        C  0.07533494  0.83868595  0.40744855    -0.01600
C258        C  0.09140029  0.86254822  0.38057246    -0.10700
C259        C  0.14536943  0.91949647  0.44756859     0.05700
H260        H  0.10698939  0.87398432  0.49209882     0.07700
H261        H  0.06893605  0.82621031  0.46933429     0.11100
H262        H  0.08761615  0.85942137  0.34927719     0.11400
H263        H  0.12594080  0.90675602  0.37210866     0.07700
C264        C  0.16518186  0.90531662  0.47691912    -0.11400
C265        C  0.19043731  0.92762847  0.48841363    -0.10700
C266        C  0.19645885  0.96467337  0.47103425    -0.01600
C267        C  0.17656639  0.97958431  0.44226479    -0.11800
C268        C  0.15125016  0.95704474  0.43045927    -0.10200
H269        H  0.16170241  0.87630799  0.49019395     0.07700
H270        H  0.20572209  0.91564793  0.51049716     0.11400
H271        H  0.18095851  0.00816202  0.42854403     0.11100
H272        H  0.13632216  0.96888520  0.40793446     0.07700
C273        C  0.09069001  0.45269801  0.91828531    -0.11400
C274        C  0.10535393  0.42518653  0.94320442     0.05700
C275        C  0.09529295  0.42104130  0.98206521    -0.10200
C276        C  0.07019756  0.44241893  0.99514492    -0.11800
C277        C  0.05482552  0.46857008  0.96978870    -0.01600
C278        C  0.06575633  0.47451666  0.93161431    -0.10700
C279        C  0.12939796  0.39843224  0.92818691     0.05700
H280        H  0.10587427  0.39976158  0.00178490     0.07700
H281        H  0.06196787  0.43736432  0.02465195     0.11100
H282        H  0.05438421  0.49500711  0.91182807     0.11400
H283        H  0.09819375  0.45677533  0.88832311     0.07700
C284        C  0.12564336  0.37919777  0.89187538    -0.11400
C285        C  0.14638365  0.35034048  0.87967969    -0.10700
C286        C  0.17137188  0.34005525  0.90352626    -0.01600
C287        C  0.17572789  0.36043965  0.93918246    -0.11800
C288        C  0.15494027  0.38928392  0.95138424    -0.10200
H289        H  0.10596962  0.38524923  0.87361752     0.07700
H290        H  0.14233661  0.33532640  0.85200100     0.11400
H291        H  0.19485386  0.35353985  0.95809744     0.11100
H292        H  0.15854056  0.40397798  0.97933258     0.07700
C293        C  0.40079827  0.45511829  0.92416374    -0.11400
C294        C  0.38916619  0.42441899  0.94807231     0.05700
C295        C  0.40338646  0.41672057  0.98439074    -0.10200
C296        C  0.42922761  0.43803246  0.99575323    -0.11800
C297        C  0.44145211  0.46736897  0.97109261    -0.01600
C298        C  0.42668763  0.47642874  0.93561253    -0.10700
C299        C  0.36386099  0.39849306  0.93405155     0.05700
H300        H  0.39535015  0.39305414  0.00333945     0.07700
H301        H  0.44029155  0.43082987  0.02336052     0.11100
H302        H  0.43533094  0.49967998  0.91664749     0.11400
H303        H  0.39005999  0.46239857  0.89639266     0.07700
C304        C  0.34213559  0.38322484  0.96026255    -0.11400
C305        C  0.32041169  0.35546457  0.94755483    -0.10700
C306        C  0.31999096  0.34231000  0.90837722    -0.01600
C307        C  0.34093668  0.35883223  0.88190660    -0.11800
C308        C  0.36256315  0.38648887  0.89456452    -0.10200
H309        H  0.34219605  0.39230054  0.99075707     0.07700
H310        H  0.30452123  0.34349252  0.96865440     0.11400
H311        H  0.34119715  0.34959510  0.85145086     0.11100
H312        H  0.37911785  0.39713609  0.87364839     0.07700
C313        C  0.09539663  0.54528849  0.07368324    -0.11400
C314        C  0.10596500  0.57741819  0.05087838     0.05700
C315        C  0.09145041  0.58601755  0.01501811    -0.10200
C316        C  0.06608857  0.56414298  0.00306086    -0.11800
C317        C  0.05491793  0.53313109  0.02654065    -0.01600
C318        C  0.07021617  0.52302662  0.06137258    -0.10700
C319        C  0.13058615  0.60377535  0.06550286     0.05700
H320        H  0.09890821  0.61079439  0.99703831     0.07700
H321        H  0.05454744  0.57216591  0.97600543     0.11100
H322        H  0.06227912  0.49857007  0.07938881     0.11400
H323        H  0.10641680  0.53773484  0.10120760     0.07700
C324        C  0.13008746  0.61773744  0.10432649    -0.11400
C325        C  0.15135735  0.64577719  0.11723242    -0.10700
C326        C  0.17377491  0.66035412  0.09167749    -0.01600
C327        C  0.17493920  0.64527385  0.05320826    -0.11800
C328        C  0.15345386  0.61741999  0.04020043    -0.10200
H329        H  0.11251251  0.60810573  0.12432182     0.07700
H330        H  0.14983735  0.65661125  0.14709816     0.11400
H331        H  0.19191410  0.65580990  0.03280304     0.11100
H332        H  0.15445262  0.60690390  0.01018287     0.07700
C333        C  0.40000997  0.57864715  0.00783892    -0.11400
C334        C  0.39056868  0.58048972  0.04722099     0.05700
C335        C  0.40644221  0.55743985  0.07532260    -0.10200
C336        C  0.43128531  0.53409289  0.06447334    -0.11800
C337        C  0.44168319  0.53455540  0.02566132    -0.01600
C338        C  0.42554794  0.55660248  0.99740474    -0.10700
C339        C  0.36536698  0.60767778  0.05918577     0.05700
H340        H  0.40045581  0.55825580  0.10605249     0.07700
H341        H  0.44302915  0.51677426  0.08668202     0.11100
H342        H  0.43317212  0.55749891  0.96724697     0.11400
H343        H  0.38804773  0.59469661  0.98494454     0.07700
C344        C  0.35947391  0.64325495  0.03825131    -0.11400
C345        C  0.33724212  0.66994190  0.05089808    -0.10700
C346        C  0.32107815  0.66235995  0.08539358    -0.01600
C347        C  0.32638745  0.62684652  0.10607565    -0.11800
C348        C  0.34785230  0.59944924  0.09273312    -0.10200
H349        H  0.37273045  0.65150087  0.01288915     0.07700
H350        H  0.33374542  0.69749767  0.03481916     0.11400
H351        H  0.31394765  0.62037024  0.13267882     0.11100
H352        H  0.35082727  0.57203761  0.10910395     0.07700
C353        C  0.49285907  0.61378443  0.10105595    -0.11400
C354        C  0.49967670  0.59538565  0.13720206     0.05700
C355        C  0.00628615  0.55448445  0.13815409    -0.10200
C356        C  0.00566717  0.53221284  0.10360259    -0.11800
C357        C  0.49915920  0.55066590  0.06751642    -0.01600
C358        C  0.49284365  0.59159599  0.06633707    -0.10700
C359        C  0.49934034  0.61872215  0.17392374     0.05700
H360        H  0.01126084  0.53965497  0.16573095     0.07700
H361        H  0.01007864  0.50044975  0.10494147     0.11100
H362        H  0.48766188  0.60612782  0.03867052     0.11400
H363        H  0.48780170  0.64537703  0.09971608     0.07700
C364        C  0.47442412  0.64304033  0.18250006    -0.11400
C365        C  0.47433529  0.66626368  0.21641855    -0.10700
C366        C  0.49938244  0.66609118  0.24224368    -0.01600
C367        C  0.02408296  0.64100779  0.23406445    -0.11800
C368        C  0.02394305  0.61726151  0.20030089    -0.10200
H369        H  0.45505523  0.64419187  0.16279548     0.07700
H370        H  0.45495605  0.68529187  0.22174830     0.11400
H371        H  0.04368066  0.64022153  0.25337722     0.11100
H372        H  0.04341004  0.59863897  0.19416063     0.07700
C373        C  0.15460659  0.41957969  0.51143810    -0.11400
C374        C  0.14255234  0.42296904  0.54939225     0.05700
C375        C  0.15546893  0.45095449  0.57545415    -0.10200
C376        C  0.18085482  0.47335794  0.56453684    -0.11800
C377        C  0.19385417  0.46800244  0.52747814    -0.01600
C378        C  0.18003250  0.44186035  0.50064829    -0.10700
C379        C  0.11865376  0.39481651  0.56292595     0.05700
H380        H  0.14632559  0.45489797  0.60462419     0.07700
H381        H  0.19080358  0.49408432  0.58529160     0.11100
H382        H  0.18972821  0.43753843  0.47181155     0.11400
H383        H  0.14542665  0.39816595  0.49076868     0.07700
C384        C  0.09489797  0.38238428  0.53790965    -0.11400
C385        C  0.07399669  0.35342306  0.55029791    -0.10700
C386        C  0.07654735  0.33624271  0.58788453    -0.01600
C387        C  0.10002190  0.34931928  0.61294042    -0.11800
C388        C  0.12074651  0.37807563  0.60064004    -0.10200
H389        H  0.09256588  0.39490922  0.50872178     0.07700
H390        H  0.05615800  0.34412611  0.53031137     0.11400
H391        H  0.10278332  0.33687756  0.64211158     0.11100
H392        H  0.13907685  0.38623329  0.62037357     0.07700
C393        C  0.38905133  0.35674208  0.54129223    -0.11400
C394        C  0.38411901  0.39275932  0.56173474     0.05700
C395        C  0.40291328  0.40130370  0.59432382    -0.10200
C396        C  0.42479374  0.37389012  0.60708953    -0.11800
C397        C  0.42921766  0.33807643  0.58669493    -0.01600
C398        C  0.41167734  0.33014131  0.55323069    -0.10700
C399        C  0.35870929  0.42005914  0.55003556     0.05700
H400        H  0.40066645  0.42894282  0.61037709     0.07700
H401        H  0.43820218  0.38054232  0.63303364     0.11100
H402        H  0.41437032  0.30228218  0.53753110     0.11400
H403        H  0.37476847  0.34800970  0.51686497     0.07700
C404        C  0.34761314  0.42034176  0.51115529    -0.11400
C405        C  0.32185128  0.44225227  0.50106355    -0.10700
C406        C  0.30721167  0.46598704  0.52895444    -0.01600
C407        C  0.31920177  0.46808866  0.56710795    -0.11800
C408        C  0.34427166  0.44476377  0.57779423    -0.10200
H409        H  0.35846768  0.40324642  0.48831767     0.07700
H410        H  0.31298940  0.44017190  0.47140948     0.11400
H411        H  0.30880867  0.48704623  0.58887327     0.11100
H412        H  0.35160970  0.44541321  0.60813235     0.07700
C413        C  0.40970115  0.11104259  0.54595965    -0.11400
C414        C  0.38470470  0.10148579  0.56971053     0.05700
C415        C  0.38195698  0.12026614  0.60634742    -0.10200
C416        C  0.40305258  0.14892325  0.61836743    -0.11800
C417        C  0.42747172  0.15959774  0.59405239    -0.01600
C418        C  0.43086062  0.13977462  0.55799593    -0.10700
C419        C  0.36014216  0.07484041  0.55510742     0.05700
H420        H  0.36276234  0.11406373  0.62509894     0.07700
H421        H  0.39974728  0.16341515  0.64641346     0.11100
H422        H  0.44950236  0.14702586  0.53868513     0.11400
H423        H  0.41263779  0.09672395  0.51775970     0.07700
C424        C  0.34989646  0.07822125  0.51608536    -0.11400
C425        C  0.32439420  0.05714116  0.50334196    -0.10700
C426        C  0.30861638  0.03219092  0.52924653    -0.01600
C427        C  0.31953549  0.02710971  0.56770275    -0.11800
C428        C  0.34505531  0.04838662  0.58059304    -0.10200
H429        H  0.36069009  0.09866283  0.49585792     0.07700
H430        H  0.31625309  0.06138407  0.47354484     0.11400
H431        H  0.30784091  0.00753776  0.58792692     0.11100
H432        H  0.35266135  0.04473053  0.61067184     0.07700
C433        C  0.11670460  0.11032342  0.60382512    -0.11400
C434        C  0.11909760  0.10223484  0.56351710     0.05700
C435        C  0.09860480  0.12057776  0.53736132    -0.10200
C436        C  0.07686785  0.14751900  0.55107563    -0.11800
C437        C  0.07533406  0.15698198  0.59124623    -0.01600
C438        C  0.09513941  0.13743037  0.61751952    -0.10700
C439        C  0.14426069  0.07705906  0.54869256     0.05700
H440        H  0.09974594  0.11456414  0.50616547     0.07700
H441        H  0.06194083  0.16189396  0.53002893     0.11100
H442        H  0.09457620  0.14388182  0.64865752     0.11400
H443        H  0.13236327  0.09694544  0.62463040     0.07700
C444        C  0.16138892  0.08986637  0.51634868    -0.11400
C445        C  0.18679225  0.06832889  0.50438055    -0.10700
C446        C  0.19537411  0.03342397  0.52421573    -0.01600
C447        C  0.17774378  0.01955002  0.55551270    -0.11800
C448        C  0.15251238  0.04143167  0.56792804    -0.10200
H449        H  0.15584030  0.11740280  0.50126713     0.07700
H450        H  0.20029472  0.07943131  0.48022957     0.11400
H451        H  0.18399023  0.99246008  0.57090573     0.11100
H452        H  0.13957116  0.03071882  0.59273532     0.07700
C453        C  0.99476023  0.44760917  0.85896323    -0.11400
C454        C  0.50255147  0.40708052  0.85968869     0.05700
C455        C  0.50796371  0.38811281  0.89589728    -0.10200
C456        C  0.50545054  0.40949035  0.93096409    -0.11800
C457        C  0.49792875  0.45011572  0.93004057    -0.01600
C458        C  0.99282945  0.46907313  0.89387284    -0.10700
C459        C  0.50446382  0.38454028  0.82266871     0.05700
H460        H  0.51387976  0.35677191  0.89696910     0.07700
H461        H  0.50989737  0.39468760  0.95870214     0.11100
H462        H  0.98783978  0.50069066  0.89272977     0.11400
H463        H  0.99073777  0.46277160  0.83129928     0.07700
C464        C  0.47962729  0.38379733  0.79675240    -0.11400
C465        C  0.48049499  0.36035595  0.76294183    -0.10700
C466        C  0.50644662  0.33783227  0.75412399    -0.01600
C467        C  0.03186666  0.34019723  0.77916172    -0.11800
C468        C  0.03075298  0.36306319  0.81341189    -0.10200
H469        H  0.45915915  0.40023887  0.80344297     0.07700
H470        H  0.46057772  0.35905150  0.74419776     0.11400
H471        H  0.05205762  0.32287602  0.77328394     0.11100
H472        H  0.05023907  0.36363046  0.83295288     0.07700
C473        C  0.35696003  0.11105720  0.89850408    -0.11400
C474        C  0.36176851  0.10576090  0.93895981     0.05700
C475        C  0.34387608  0.12737905  0.96551847    -0.10200
C476        C  0.32248936  0.15498872  0.95189779    -0.11800
C477        C  0.31880132  0.16179745  0.91143147    -0.01600
C478        C  0.33579193  0.13888497  0.88488452    -0.10700
C479        C  0.38722292  0.08064693  0.95322468     0.05700
H480        H  0.34692158  0.12353721  0.99688244     0.07700
H481        H  0.30968578  0.17205268  0.97307464     0.11100
H482        H  0.33329559  0.14317918  0.85349884     0.11400
H483        H  0.37059022  0.09507692  0.87737429     0.07700
C484        C  0.39353321  0.04344213  0.93596853    -0.11400
C485        C  0.41918802  0.02169081  0.94751419    -0.10700
C486        C  0.43899609  0.03721196  0.97599658    -0.01600
C487        C  0.43241500  0.07377696  0.99380823    -0.11800
C488        C  0.40672144  0.09526568  0.98265172    -0.10200
H489        H  0.37876931  0.03141875  0.91337127     0.07700
H490        H  0.42398017  0.99333105  0.93369681     0.11400
H491        H  0.44758070  0.08601621  0.01587161     0.11100
H492        H  0.40272007  0.12406013  0.99602705     0.07700
C493        C  0.14650322  0.09863581  0.90794188    -0.11400
C494        C  0.13013889  0.10577551  0.94266270     0.05700
C495        C  0.13718767  0.14033505  0.96455191    -0.10200
C496        C  0.15925709  0.16725717  0.95160364    -0.11800
C497        C  0.17414126  0.16093475  0.91592816    -0.01600
C498        C  0.16781538  0.12627263  0.89439133    -0.10700
C499        C  0.10470601  0.07882484  0.95472445     0.05700
H500        H  0.12485733  0.14770662  0.99091588     0.07700
H501        H  0.16352588  0.19412546  0.96840354     0.11100
H502        H  0.17923897  0.12074327  0.86685132     0.11400
H503        H  0.14263324  0.07199271  0.89074609     0.07700
C504        C  0.08749864  0.05782978  0.92642116    -0.11400
C505        C  0.06216117  0.03536134  0.93734523    -0.10700
C506        C  0.05256090  0.03475000  0.97652846    -0.01600
C507        C  0.07026802  0.05418441  0.00505761    -0.11800
C508        C  0.09624273  0.07543113  0.99441954    -0.10200
H509        H  0.09274229  0.05980443  0.89550549     0.07700
H510        H  0.04926584  0.01986574  0.91490714     0.11400
H511        H  0.06351869  0.05374906  0.03558879     0.11100
H512        H  0.10929238  0.08977232  0.01740114     0.07700
C513        C  0.48408855  0.06239521  0.86661171    -0.11400
C514        C  0.99593288  0.10120866  0.86698743     0.05700
C515        C  0.00688739  0.11736080  0.90243160    -0.10200
C516        C  0.00603628  0.09484777  0.93702681    -0.11800
C517        C  0.99493451  0.05562967  0.93624436    -0.01600
C518        C  0.48388933  0.03966813  0.90087648    -0.10700
C519        C  0.99735672  0.12434145  0.83016759     0.05700
H520        H  0.01595121  0.14739526  0.90330030     0.07700
H521        H  0.01453276  0.10759450  0.96415314     0.11100
H522        H  0.47551900  0.00929298  0.89975835     0.11400
H523        H  0.47575769  0.04930412  0.83955273     0.07700
C524        C  0.47154231  0.12827656  0.80615117    -0.11400
C525        C  0.47281701  0.15061100  0.77152972    -0.10700
C526        C  0.00007409  0.16892192  0.76005891    -0.01600
C527        C  0.02609919  0.16392266  0.78368677    -0.11800
C528        C  0.02468100  0.14207324  0.81855246    -0.10200
H529        H  0.45023029  0.11476946  0.81465684     0.07700
H530        H  0.45236268  0.15403832  0.75408103     0.11400
H531        H  0.04739569  0.17787067  0.77586340     0.11100
H532        H  0.04493727  0.13893343  0.83646055     0.07700
C533        C  0.40333939  0.91253932  0.01686276    -0.11400
C534        C  0.38659598  0.92385351  0.05000286     0.05700
C535        C  0.39544184  0.95816601  0.07097859    -0.10200
C536        C  0.42094042  0.98013060  0.05947992    -0.11800
C537        C  0.43810078  0.96773050  0.02722322    -0.01600
C538        C  0.42892295  0.93419864  0.00571327    -0.10700
C539        C  0.36152832  0.89801154  0.06404922     0.05700
H540        H  0.38284162  0.96766823  0.09649909     0.07700
H541        H  0.42775274  0.00609051  0.07625361     0.11100
H542        H  0.44209781  0.92423123  0.98084017     0.11400
H543        H  0.39738335  0.88595383  0.00049956     0.07700
C544        C  0.34086156  0.88075576  0.03739350    -0.11400
C545        C  0.31958984  0.85261713  0.05016126    -0.10700
C546        C  0.31886915  0.84080892  0.08974865    -0.01600
C547        C  0.33872702  0.85930061  0.11661778    -0.11800
C548        C  0.35971542  0.88771273  0.10394333    -0.10200
H549        H  0.34158350  0.88845874  0.00651463     0.07700
H550        H  0.30453814  0.83898038  0.02880291     0.11400
H551        H  0.33854016  0.85110311  0.14739596     0.11100
H552        H  0.37549532  0.90022639  0.12509739     0.07700
C553        C  0.09333319  0.92323705  0.01338324    -0.11400
C554        C  0.10193323  0.91986886  0.05316917     0.05700
C555        C  0.08553551  0.94195656  0.08115172    -0.10200
C556        C  0.06089104  0.96565882  0.06978146    -0.11800
C557        C  0.05124006  0.96657959  0.03045661    -0.01600
C558        C  0.06805785  0.94576790  0.00231634    -0.10700
C559        C  0.12693586  0.89225684  0.06546086     0.05700
H560        H  0.09096876  0.94010422  0.11210854     0.07700
H561        H  0.04876426  0.98226444  0.09191701     0.11100
H562        H  0.06121899  0.94633622  0.97170861     0.11400
H563        H  0.10582302  0.90809744  0.99060535     0.07700
C564        C  0.13319497  0.85752978  0.04360350    -0.11400
C565        C  0.15566927  0.83079936  0.05579629    -0.10700
C566        C  0.17177880  0.83737673  0.09077102    -0.01600
C567        C  0.16585228  0.87184112  0.11270110    -0.11800
C568        C  0.14406903  0.89933689  0.09985831    -0.10200
H569        H  0.12015569  0.85007915  0.01762943     0.07700
H570        H  0.15955674  0.80403695  0.03875439     0.11400
H571        H  0.17817672  0.87754610  0.13973976     0.11100
H572        H  0.14069037  0.92601598  0.11710172     0.07700
C573        C  0.47048442  0.88143931  0.20182214    -0.11400
C574        C  0.99422028  0.88019020  0.17456373     0.05700
C575        C  0.01976626  0.85663000  0.18238546    -0.10200
C576        C  0.02133794  0.83386359  0.21654414    -0.11800
C577        C  0.99717688  0.83381374  0.24332079    -0.01600
C578        C  0.47183513  0.85815826  0.23586457    -0.10700
C579        C  0.99264382  0.90352790  0.13799682     0.05700
H580        H  0.03849828  0.85579460  0.16195299     0.07700
H581        H  0.04113862  0.81533457  0.22131869     0.11100
H582        H  0.45287605  0.85866815  0.25592903     0.11400
H583        H  0.45060036  0.89959684  0.19622806     0.07700
C584        C  0.48628001  0.94444496  0.13939185    -0.11400
C585        C  0.48668008  0.96707545  0.10508619    -0.10700
C586        C  0.99317115  0.94901535  0.06899514    -0.01600
C587        C  0.99879833  0.90797672  0.06725700    -0.11800
C588        C  0.99869135  0.88533238  0.10169909    -0.10200
H589        H  0.48182549  0.95901991  0.16712685     0.07700
H590        H  0.48241685  0.99886303  0.10665005     0.11400
H591        H  0.00369753  0.89379334  0.03945818     0.11100
H592        H  0.00345763  0.85367725  0.10012105     0.07700
C593        C  0.49442086  0.97409229  0.03344141     0.01700
C594        C  0.96699526  0.98766630  0.01680680     0.01700
C595        C  0.96745355  0.01651236  0.98698568     0.01700
C596        C  0.99536847  0.02999907  0.97173873     0.01700
C597        C  0.52315247  0.01609467  0.98803610     0.01700
C598        C  0.52262566  0.98705341  0.01830410     0.01700
Fe599      Fe  0.96416433  0.25273001  0.67244116     1.65800
Fe600      Fe  0.54138786  0.24828242  0.67217032     1.73200
Fe601      Fe  0.00197322  0.24740142  0.58494896     1.54400
O602        O  0.97072123  0.20111168  0.58403009    -0.82300
O603        O  0.56130521  0.28832135  0.63445994    -0.80600
O604        O  0.94311931  0.21036004  0.63784017    -0.84800
O605        O  0.94794278  0.29881410  0.63849417    -0.79600
O606        O  0.53613182  0.20493181  0.58162447    -0.81400
O607        O  0.53036953  0.29558352  0.70802293    -0.84100
C608        C  0.94974348  0.30723401  0.60234959     0.96600
C609        C  0.94847230  0.19214109  0.60596549     1.04100
O610        O  0.50251555  0.24946159  0.64319648    -1.13100
O611        O  0.52634444  0.20880035  0.71416096    -0.75500
O612        O  0.97590491  0.20763308  0.71082145    -0.79000
O613        O  0.96751241  0.28927424  0.57910635    -0.79700
C614        C  0.50081669  0.19621045  0.72591081     0.95500
O615        O  0.97996605  0.29502945  0.71119205    -0.77700
O616        O  0.55751605  0.20043642  0.64074927    -0.82900
C617        C  0.55568444  0.30423586  0.60136088     0.98200
C618        C  0.55487728  0.18904172  0.60541480     1.04100
O619        O  0.53330817  0.29361114  0.57998964    -0.78500
C620        C  0.00560811  0.30828077  0.72203920     1.02400
C621        C  0.99800166  0.47431499  0.96632942     0.01700
C622        C  0.52590954  0.48675681  0.98294506     0.01700
C623        C  0.52611395  0.51332463  0.01491559     0.01700
C624        C  0.99847809  0.52625744  0.03134579     0.01700
C625        C  0.97047810  0.51453365  0.01423676     0.01700
C626        C  0.97031101  0.48720565  0.98269809     0.01700
Fe627      Fe  0.96147558  0.75007794  0.32818742     1.65800
Fe628      Fe  0.53815918  0.74911324  0.32686511     1.73200
Fe629      Fe  0.00106785  0.74900214  0.41455433     1.54400
O630        O  0.97163108  0.79721782  0.41859295    -0.82300
O631        O  0.55953712  0.71025023  0.36452138    -0.80600
O632        O  0.94114236  0.78800323  0.36720159    -0.84800
O633        O  0.94600444  0.70099886  0.35811121    -0.79600
O634        O  0.53712543  0.78934930  0.41786778    -0.81400
O635        O  0.52514931  0.70052196  0.29355849    -0.84100
C636        C  0.94747577  0.69115746  0.39406792     0.96600
C637        C  0.94801948  0.80589407  0.39876628     1.04100
O638        O  0.50025277  0.74940465  0.35667507    -1.13100
O639        O  0.52215008  0.78743139  0.28421393    -0.75500
O640        O  0.97335532  0.79923300  0.29546854    -0.79000
O641        O  0.96521024  0.70845091  0.41838457    -0.79700
C642        C  0.49761304  0.80571828  0.27669665     0.95500
O643        O  0.97606379  0.71259116  0.28425612    -0.77700
O644        O  0.55477714  0.79773939  0.35716754    -0.82900
C645        C  0.55349510  0.69218101  0.39623542     0.98200
C646        C  0.55431098  0.80696229  0.39333109     1.04100
O647        O  0.53054997  0.70084832  0.41693415    -0.78500
C648        C  0.00027267  0.69424676  0.27564967     1.02400
C649        C  0.75275679  0.97321761  0.46710300     0.01700
C650        C  0.72470383  0.98599895  0.48243650     0.01700
C651        C  0.72421074  0.01368090  0.51340657     0.01700
C652        C  0.75170002  0.02638853  0.53092469     0.01700
C653        C  0.77980941  0.01343610  0.51579314     0.01300
C654        C  0.78034073  0.98599359  0.48447983     0.01700
Fe655      Fe  0.78710324  0.74734223  0.17101486     1.65800
Fe656      Fe  0.70990154  0.75122797  0.17330295     1.73200
Fe657      Fe  0.74655391  0.75014748  0.08502729     1.54400
O658        O  0.77594951  0.79828132  0.08215103    -0.82300
O659        O  0.68900919  0.70993826  0.13701955    -0.80600
O660        O  0.80618587  0.78953942  0.13430645    -0.84800
O661        O  0.80257814  0.70072166  0.13763592    -0.79600
O662        O  0.71044509  0.78958671  0.08129818    -0.81400
O663        O  0.72239628  0.70503364  0.20988027    -0.84100
C664        C  0.80060805  0.69283368  0.10140588     0.96600
C665        C  0.79898979  0.80775795  0.10281742     1.04100
O666        O  0.74785110  0.74954261  0.14320549    -1.13100
O667        O  0.72601430  0.79210352  0.21336124    -0.75500
O668        O  0.77638442  0.79290906  0.20878032    -0.79000
O669        O  0.78242508  0.71076758  0.07842769    -0.79700
C670        C  0.75185459  0.80500085  0.22388688     0.95500
O671        O  0.77291727  0.70577789  0.21162952    -0.77700
O672        O  0.69280504  0.79849116  0.14165782    -0.82900
C673        C  0.69465858  0.69251954  0.10472027     0.98200
C674        C  0.69315548  0.80698350  0.10546151     1.04100
O675        O  0.71699056  0.70213691  0.08314972    -0.78500
C676        C  0.74755207  0.69293736  0.22368925     1.02400
C677        C  0.75053983  0.47440560  0.53360384     0.01700
C678        C  0.77860284  0.48667019  0.51760263     0.01700
C679        C  0.77888754  0.51430635  0.48633663     0.01700
C680        C  0.75132289  0.52773413  0.46970700     0.01700
C681        C  0.72337818  0.51530575  0.48566636     0.01700
C682        C  0.72294198  0.48758039  0.51672480     0.01700
Fe683      Fe  0.78447160  0.25111759  0.82757254     1.65800
Fe684      Fe  0.70726167  0.24496747  0.82719902     1.73200
Fe685      Fe  0.74605474  0.25289791  0.91477167     1.54400
O686        O  0.77916777  0.20908421  0.91983923    -0.82300
O687        O  0.68739611  0.29019564  0.85908184    -0.80600
O688        O  0.80266838  0.20643766  0.86190756    -0.84800
O689        O  0.80364493  0.29473860  0.86185853    -0.79600
O690        O  0.71348163  0.20878300  0.92161650    -0.81400
O691        O  0.71965040  0.28690502  0.78580860    -0.84100
C692        C  0.79922935  0.30997751  0.89526402     0.96600
C693        C  0.79883975  0.19418177  0.89687109     1.04100
O694        O  0.74590173  0.24963686  0.85656485    -1.13100
O695        O  0.72198546  0.19961477  0.79130953    -0.75500
O696        O  0.77178463  0.20839322  0.78748588    -0.79000
O697        O  0.77828107  0.29794291  0.91770874    -0.79700
C698        C  0.74751970  0.19142348  0.77651429     0.95500
O699        O  0.76973412  0.29561083  0.79046763    -0.77700
O700        O  0.69014274  0.20173933  0.86387585    -0.82900
C701        C  0.69200099  0.30725399  0.89187686     0.98200
C702        C  0.69400329  0.19208488  0.89951368     1.04100
O703        O  0.71320478  0.29690458  0.91522035    -0.78500
C704        C  0.74411707  0.30372509  0.77527018     1.02400
C705        C  0.74918315  0.44558470  0.64039717    -0.11400
C706        C  0.74645038  0.40397258  0.63826230     0.05700
C707        C  0.74538551  0.38528151  0.60134104    -0.10200
C708        C  0.74723102  0.40800406  0.56699264    -0.11800
C709        C  0.74984233  0.44955842  0.56935885    -0.01600
C710        C  0.75055677  0.46825015  0.60613874    -0.10700
C711        C  0.74476613  0.38015043  0.67456958     0.05700
H712        H  0.74341249  0.35314798  0.59917557     0.07700
H713        H  0.74638539  0.39337519  0.53866888     0.11100
H714        H  0.75217047  0.50043690  0.60818318     0.11400
H715        H  0.74977208  0.46053421  0.66857268     0.07700
C716        C  0.76663953  0.38505171  0.70429941    -0.11400
C717        C  0.76594820  0.36103202  0.73781654    -0.10700
C718        C  0.74300840  0.33232903  0.74241833    -0.01600
C719        C  0.72045015  0.32860175  0.71331418    -0.11800
C720        C  0.72150067  0.35207081  0.67947467    -0.10200
H721        H  0.78478017  0.40659336  0.70098379     0.07700
H722        H  0.78360173  0.36443380  0.75982738     0.11400
H723        H  0.70267200  0.30645199  0.71598189     0.11100
H724        H  0.70425068  0.34819324  0.65699931     0.07700
C725        C  0.74360589  0.61481561  0.39948895    -0.11400
C726        C  0.75069330  0.59648903  0.36358155     0.05700
C727        C  0.75848456  0.55595430  0.36303828    -0.10200
C728        C  0.75867490  0.53387942  0.39774275    -0.11800
C729        C  0.75179545  0.55220565  0.43356869    -0.01600
C730        C  0.74436935  0.59282315  0.43438647    -0.10700
C731        C  0.74938957  0.61935613  0.32658472     0.05700
H732        H  0.76369005  0.54119470  0.33562112     0.07700
H733        H  0.76389176  0.50232569  0.39669281     0.11100
H734        H  0.73884601  0.60721529  0.46188002     0.11400
H735        H  0.73763788  0.64613785  0.40047610     0.07700
C736        C  0.72353335  0.64183123  0.31720275    -0.11400
C737        C  0.72237925  0.66405930  0.28255571    -0.10700
C738        C  0.74730496  0.66477834  0.25702506    -0.01600
C739        C  0.77302220  0.64173542  0.26615599    -0.11800
C740        C  0.77392167  0.61886081  0.30049249    -0.10200
H741        H  0.70425170  0.64223666  0.33677800     0.07700
H742        H  0.70241816  0.68191374  0.27651786     0.11400
H743        H  0.79259390  0.64192732  0.24708230     0.11100
H744        H  0.79409287  0.60168480  0.30727267     0.07700
C745        C  0.72836111  0.88002214  0.30041743    -0.11400
C746        C  0.75419596  0.88097252  0.32469750     0.05700
C747        C  0.77992233  0.85894580  0.31417497    -0.10200
C748        C  0.77963898  0.83571231  0.28021661    -0.11800
C749        C  0.75343449  0.83364552  0.25659209    -0.01600
C750        C  0.72789358  0.85630040  0.26679272    -0.10700
C751        C  0.75405398  0.90438106  0.36129814     0.05700
H752        H  0.80017253  0.85959133  0.33235518     0.07700
H753        H  0.79953867  0.81823485  0.27324619     0.11100
H754        H  0.70738896  0.85514207  0.24913756     0.11400
H755        H  0.70822056  0.89667815  0.30813783     0.07700
C756        C  0.74372443  0.94394544  0.36094249    -0.11400
C757        C  0.74335518  0.96606041  0.39552604    -0.10700
C758        C  0.75294815  0.94880198  0.43100885    -0.01600
C759        C  0.76304373  0.90917609  0.43160869    -0.11800
C760        C  0.76381892  0.88715471  0.39685197    -0.10200
H761        H  0.73631447  0.95786110  0.33380460     0.07700
H762        H  0.73573503  0.99677064  0.39467214     0.11400
H763        H  0.77041556  0.89550302  0.45887839     0.11100
H764        H  0.77160285  0.85652698  0.39777541     0.07700
C765        C  0.75988539  0.11209224  0.60245227    -0.11400
C766        C  0.75025327  0.09398373  0.63750832     0.05700
C767        C  0.74095794  0.05398711  0.63712126    -0.10200
C768        C  0.74159270  0.03225076  0.60230536    -0.11800
C769        C  0.75081097  0.05043967  0.56723868    -0.01600
C770        C  0.75991367  0.09050101  0.56738513    -0.10700
C771        C  0.75004785  0.11669099  0.67452299     0.05700
H772        H  0.73377011  0.03940991  0.66391455     0.07700
H773        H  0.73506861  0.00108897  0.60267149     0.11100
H774        H  0.76723644  0.10479061  0.54050847     0.11400
H775        H  0.76704972  0.14301134  0.60220456     0.07700
C776        C  0.77599225  0.13758822  0.68662448    -0.11400
C777        C  0.77556979  0.16022496  0.72093994    -0.10700
C778        C  0.74901321  0.16286692  0.74352087    -0.01600
C779        C  0.72324921  0.14107118  0.73179731    -0.11800
C780        C  0.72384744  0.11794431  0.69770144    -0.10200
H781        H  0.79653025  0.13657900  0.66933895     0.07700
H782        H  0.79577594  0.17676430  0.72900116     0.11400
H783        H  0.70243707  0.14259073  0.74845625     0.11100
H784        H  0.70357762  0.10198843  0.68875516     0.07700
C785        C  0.59412549  0.61486887  0.45901865    -0.11400
C786        C  0.61832869  0.60408820  0.43443711     0.05700
C787        C  0.61988715  0.62082827  0.39671550    -0.10200
C788        C  0.59833218  0.64850248  0.38420739    -0.11800
C789        C  0.57464483  0.66034234  0.40912067    -0.01600
C790        C  0.57243901  0.64269691  0.44645162    -0.10700
C791        C  0.64314230  0.57778332  0.44868814     0.05700
H792        H  0.63846738  0.61371374  0.37728980     0.07700
H793        H  0.60070306  0.66130272  0.35516566     0.11100
H794        H  0.55440678  0.65104240  0.46625470     0.11400
H795        H  0.59216125  0.60211345  0.48812639     0.07700
C796        C  0.65476871  0.58236905  0.48692452    -0.11400
C797        C  0.68029848  0.56098165  0.49902216    -0.10700
C798        C  0.69470456  0.53470840  0.47315880    -0.01600
C799        C  0.68257897  0.52876398  0.43550378    -0.11800
C800        C  0.65698396  0.55016434  0.42333209    -0.10200
H801        H  0.64494653  0.60375499  0.50695330     0.07700
H802        H  0.68948125  0.56587498  0.52820317     0.11400
H803        H  0.69330300  0.50823544  0.41537595     0.11100
H804        H  0.64828323  0.54556771  0.39388519     0.07700
C805        C  0.90520163  0.62012562  0.46145980    -0.11400
C806        C  0.88379904  0.60323361  0.43558539     0.05700
C807        C  0.88493129  0.61340975  0.39560709    -0.10200
C808        C  0.90621992  0.64097999  0.38202744    -0.11800
C809        C  0.92694134  0.65908268  0.40810974    -0.01600
C810        C  0.92657264  0.64771605  0.44786655    -0.10700
C811        C  0.85892528  0.57753462  0.45049339     0.05700
H812        H  0.86852323  0.60129746  0.37503046     0.07700
H813        H  0.90582143  0.64893320  0.35119863     0.11100
H814        H  0.94230243  0.66086084  0.46870129     0.11400
H815        H  0.90508222  0.61246989  0.49236250     0.07700
C816        C  0.84909068  0.54387896  0.42925395    -0.11400
C817        C  0.82369689  0.52219931  0.44147412    -0.10700
C818        C  0.80771611  0.53393746  0.47499360    -0.01600
C819        C  0.81801473  0.56663576  0.49690988    -0.11800
C820        C  0.84339667  0.58823540  0.48482931    -0.10200
H821        H  0.86078240  0.53471109  0.40290198     0.07700
H822        H  0.81612296  0.49689074  0.42431267     0.11400
H823        H  0.80578616  0.57614674  0.52275019     0.11100
H824        H  0.85012205  0.61430929  0.50149234     0.07700
C825        C  0.84715188  0.95054538  0.42415681    -0.11400
C826        C  0.86138213  0.92406522  0.45060748     0.05700
C827        C  0.85041861  0.92123105  0.48912804    -0.10200
C828        C  0.82469103  0.94258376  0.50025356    -0.11800
C829        C  0.80957988  0.96729692  0.47318350    -0.01600
C830        C  0.82150939  0.97211531  0.43541128    -0.10700
C831        C  0.88518410  0.89621300  0.43685222     0.05700
H832        H  0.86070164  0.90083601  0.50999369     0.07700
H833        H  0.81579049  0.93861281  0.52958465     0.11100
H834        H  0.81037644  0.99150233  0.41433615     0.11400
H835        H  0.85537559  0.95367287  0.39441058     0.07700
C836        C  0.88107535  0.87631019  0.40104561    -0.11400
C837        C  0.90171325  0.84755511  0.38886303    -0.10700
C838        C  0.92715566  0.83778016  0.41211934    -0.01600
C839        C  0.93168400  0.85816657  0.44774846    -0.11800
C840        C  0.91077814  0.88704436  0.46009496    -0.10200
H841        H  0.86128547  0.88206522  0.38289336     0.07700
H842        H  0.89737601  0.83256589  0.36124524     0.11400
H843        H  0.95106540  0.85142673  0.46627559     0.11100
H844        H  0.91448240  0.90202684  0.48786373     0.07700
C845        C  0.61322475  0.88994838  0.39364628    -0.11400
C846        C  0.61969080  0.89398270  0.43390450     0.05700
C847        C  0.60285425  0.87118710  0.46084588    -0.10200
C848        C  0.58090141  0.84396552  0.44780381    -0.11800
C849        C  0.57533463  0.83868601  0.40744857    -0.01600
C850        C  0.59140000  0.86254829  0.38057258    -0.10700
C851        C  0.64536879  0.91949655  0.44756925     0.05700
H852        H  0.60698810  0.87398478  0.49209878     0.07700
H853        H  0.56893557  0.82621074  0.46933392     0.11100
H854        H  0.58761607  0.85942148  0.34927745     0.11400
H855        H  0.62594065  0.90675617  0.37210898     0.07700
C856        C  0.66518117  0.90531648  0.47691987    -0.11400
C857        C  0.69043668  0.92762813  0.48841410    -0.10700
C858        C  0.69645837  0.96467292  0.47103495    -0.01600
C859        C  0.67656592  0.97958397  0.44226542    -0.11800
C860        C  0.65124950  0.95704479  0.43045991    -0.10200
H861        H  0.66170138  0.87630787  0.49019448     0.07700
H862        H  0.70572224  0.91564693  0.51049873     0.11400
H863        H  0.68095801  0.00816167  0.42854460     0.11100
H864        H  0.63632183  0.96888508  0.40793554     0.07700
C865        C  0.59068967  0.45269789  0.91828464    -0.11400
C866        C  0.60535383  0.42518668  0.94320410     0.05700
C867        C  0.59529311  0.42104204  0.98206482    -0.10200
C868        C  0.57019778  0.44241974  0.99514464    -0.11800
C869        C  0.55482542  0.46857055  0.96978815    -0.01600
C870        C  0.56575600  0.47451654  0.93161381    -0.10700
C871        C  0.62939784  0.39843236  0.92818651     0.05700
H872        H  0.60587446  0.39976175  0.00178503     0.07700
H873        H  0.56196857  0.43736582  0.02465111     0.11100
H874        H  0.55438352  0.49500696  0.91182694     0.11400
H875        H  0.59819313  0.45677485  0.88832323     0.07700
C876        C  0.62564322  0.37919798  0.89187492    -0.11400
C877        C  0.64638363  0.35034063  0.87967943    -0.10700
C878        C  0.67137191  0.34005544  0.90352589    -0.01600
C879        C  0.67572787  0.36043996  0.93918200    -0.11800
C880        C  0.65494028  0.38928437  0.95138380    -0.10200
H881        H  0.60596968  0.38524888  0.87361788     0.07700
H882        H  0.64233653  0.33532651  0.85200015     0.11400
H883        H  0.69485402  0.35354018  0.95809751     0.11100
H884        H  0.65854038  0.40397810  0.97933145     0.07700
C885        C  0.90079848  0.45511716  0.92416370    -0.11400
C886        C  0.88916604  0.42441842  0.94807308     0.05700
C887        C  0.90338608  0.41672071  0.98439164    -0.10200
C888        C  0.92922726  0.43803264  0.99575385    -0.11800
C889        C  0.94145213  0.46736852  0.97109247    -0.01600
C890        C  0.92668788  0.47642761  0.93561219    -0.10700
C891        C  0.86386079  0.39849227  0.93405276     0.05700
H892        H  0.89534938  0.39305439  0.00334131     0.07700
H893        H  0.94029078  0.43083108  0.02336123     0.11100
H894        H  0.93533147  0.49967889  0.91664629     0.11400
H895        H  0.89006042  0.46239683  0.89639275     0.07700
C896        C  0.84213539  0.38322421  0.96026349    -0.11400
C897        C  0.82041159  0.35546375  0.94755591    -0.10700
C898        C  0.81999102  0.34230892  0.90837821    -0.01600
C899        C  0.84093677  0.35883086  0.88190783    -0.11800
C900        C  0.86256321  0.38648776  0.89456560    -0.10200
H901        H  0.84219561  0.39230053  0.99075883     0.07700
H902        H  0.80452148  0.34349138  0.96865521     0.11400
H903        H  0.84119751  0.34959368  0.85145214     0.11100
H904        H  0.87911706  0.39713439  0.87365041     0.07700
C905        C  0.59539631  0.54528910  0.07368373    -0.11400
C906        C  0.60596572  0.57741754  0.05087789     0.05700
C907        C  0.59145193  0.58601585  0.01501680    -0.10200
C908        C  0.56609000  0.56414163  0.00305978    -0.11800
C909        C  0.55491823  0.53313116  0.02654050    -0.01600
C910        C  0.57021570  0.52302760  0.06137329    -0.10700
C911        C  0.63058706  0.60377478  0.06550198     0.05700
H912        H  0.59891071  0.61079174  0.99703602     0.07700
H913        H  0.55454935  0.57216390  0.97600300     0.11100
H914        H  0.56227787  0.49857152  0.07939020     0.11400
H915        H  0.60641605  0.53773617  0.10120899     0.07700
C916        C  0.63008808  0.61773711  0.10432570    -0.11400
C917        C  0.65135803  0.64577715  0.11723179    -0.10700
C918        C  0.67377562  0.66035391  0.09167703    -0.01600
C919        C  0.67494025  0.64527335  0.05320789    -0.11800
C920        C  0.65345493  0.61741927  0.04020001    -0.10200
H921        H  0.61251379  0.60810650  0.12431985     0.07700
H922        H  0.64983780  0.65661072  0.14709678     0.11400
H923        H  0.69191521  0.65580917  0.03280356     0.11100
H924        H  0.65445393  0.60690292  0.01018167     0.07700
C925        C  0.90000969  0.57864635  0.00783859    -0.11400
C926        C  0.89056855  0.58048915  0.04722057     0.05700
C927        C  0.90644209  0.55743934  0.07532254    -0.10200
C928        C  0.93128519  0.53409247  0.06447321    -0.11800
C929        C  0.94168310  0.53455467  0.02566143    -0.01600
C930        C  0.92554769  0.55660161  0.99740458    -0.10700
C931        C  0.86536697  0.60767746  0.05918534     0.05700
H932        H  0.90045573  0.55825581  0.10605133     0.07700
H933        H  0.94302946  0.51677284  0.08668338     0.11100
H934        H  0.93317184  0.55749803  0.96724701     0.11400
H935        H  0.88804759  0.59469592  0.98494429     0.07700
C936        C  0.85947417  0.64325479  0.03825107    -0.11400
C937        C  0.83724266  0.66994188  0.05089783    -0.10700
C938        C  0.82107863  0.66236014  0.08539336    -0.01600
C939        C  0.82638763  0.62684650  0.10607520    -0.11800
C940        C  0.84785223  0.59944904  0.09273275    -0.10200
H941        H  0.87273103  0.65150051  0.01288824     0.07700
H942        H  0.83374605  0.69749841  0.03481861     0.11400
H943        H  0.81394792  0.62037028  0.13267886     0.11100
H944        H  0.85082707  0.57203755  0.10910362     0.07700
C945        C  0.99285793  0.61378375  0.10105606    -0.11400
C946        C  0.99967679  0.59538555  0.13720197     0.05700
C947        C  0.50628491  0.55448438  0.13815433    -0.10200
C948        C  0.50566609  0.53221280  0.10360262    -0.11800
C949        C  0.99915906  0.55066532  0.06751655    -0.01600
C950        C  0.99284240  0.59159534  0.06633729    -0.10700
C951        C  0.99934053  0.61872233  0.17392347     0.05700
H952        H  0.51125836  0.53965454  0.16573056     0.07700
H953        H  0.51007634  0.50045116  0.10494167     0.11100
H954        H  0.98765972  0.60612678  0.03867115     0.11400
H955        H  0.98779928  0.64537664  0.09971617     0.07700
C956        C  0.97442396  0.64303967  0.18250044    -0.11400
C957        C  0.97433515  0.66626307  0.21641888    -0.10700
C958        C  0.99938259  0.66609138  0.24224327    -0.01600
C959        C  0.52408239  0.64100677  0.23406539    -0.11800
C960        C  0.52394251  0.61726052  0.20030186    -0.10200
H961        H  0.95505500  0.64419084  0.16279640     0.07700
H962        H  0.95495566  0.68529051  0.22174900     0.11400
H963        H  0.54368048  0.64022010  0.25337927     0.11100
H964        H  0.54340926  0.59863688  0.19416183     0.07700
C965        C  0.65460691  0.41957958  0.51143821    -0.11400
C966        C  0.64255263  0.42296847  0.54939230     0.05700
C967        C  0.65546922  0.45095388  0.57545459    -0.10200
C968        C  0.68085494  0.47335739  0.56453741    -0.11800
C969        C  0.69385433  0.46800226  0.52747875    -0.01600
C970        C  0.68003269  0.44186026  0.50064844    -0.10700
C971        C  0.61865390  0.39481599  0.56292559     0.05700
H972        H  0.64632540  0.45489718  0.60462499     0.07700
H973        H  0.69080420  0.49408460  0.58529309     0.11100
H974        H  0.68972846  0.43753898  0.47181180     0.11400
H975        H  0.64542669  0.39816473  0.49076786     0.07700
C976        C  0.59489801  0.38238394  0.53790962    -0.11400
C977        C  0.57399656  0.35342287  0.55029776    -0.10700
C978        C  0.57654735  0.33624245  0.58788448    -0.01600
C979        C  0.60002201  0.34931863  0.61294014    -0.11800
C980        C  0.62074676  0.37807489  0.60063974    -0.10200
H981        H  0.59256560  0.39490960  0.50872075     0.07700
H982        H  0.55615773  0.34412649  0.53031194     0.11400
H983        H  0.60278359  0.33687705  0.64211102     0.11100
H984        H  0.63907664  0.38623184  0.62037264     0.07700
C985        C  0.88905247  0.35674434  0.54129192    -0.11400
C986        C  0.88411973  0.39276100  0.56173541     0.05700
C987        C  0.90291342  0.40130448  0.59432493    -0.10200
C988        C  0.92479374  0.37389045  0.60709063    -0.11800
C989        C  0.92921799  0.33807732  0.58669516    -0.01600
C990        C  0.91167838  0.33014308  0.55323039    -0.10700
C991        C  0.85871004  0.42006063  0.55003579     0.05700
H992        H  0.90066616  0.42894314  0.61037961     0.07700
H993        H  0.93820140  0.38054152  0.63303402     0.11100
H994        H  0.91437117  0.30228509  0.53753065     0.11400
H995        H  0.87477095  0.34801290  0.51686524     0.07700
C996        C  0.84761417  0.42034368  0.51115552    -0.11400
C997        C  0.82185216  0.44225396  0.50106382    -0.10700
C998        C  0.80721204  0.46598811  0.52895499    -0.01600
C999        C  0.81920186  0.46808939  0.56710853    -0.11800
C1000       C  0.84427190  0.44476459  0.57779471    -0.10200
H1001       H  0.85846921  0.40324872  0.48831719     0.07700
H1002       H  0.81299050  0.44017391  0.47141013     0.11400
H1003       H  0.80880857  0.48704649  0.58887395     0.11100
H1004       H  0.85160960  0.44541366  0.60813243     0.07700
C1005       C  0.90970107  0.11104278  0.54595938    -0.11400
C1006       C  0.88470447  0.10148617  0.56971054     0.05700
C1007       C  0.88195682  0.12026651  0.60634731    -0.10200
C1008       C  0.90305234  0.14892351  0.61836726    -0.11800
C1009       C  0.92747158  0.15959794  0.59405198    -0.01600
C1010       C  0.93086036  0.13977481  0.55799574    -0.10700
C1011       C  0.86014204  0.07484087  0.55510722     0.05700
H1012       H  0.86276168  0.11406399  0.62509962     0.07700
H1013       H  0.89974718  0.16341544  0.64641293     0.11100
H1014       H  0.94950303  0.14702650  0.53868399     0.11400
H1015       H  0.91263745  0.09672405  0.51775991     0.07700
C1016       C  0.84989657  0.07822084  0.51608511    -0.11400
C1017       C  0.82439437  0.05714099  0.50334140    -0.10700
C1018       C  0.80861613  0.03219125  0.52924634    -0.01600
C1019       C  0.81953488  0.02711052  0.56770286    -0.11800
C1020       C  0.84505477  0.04838748  0.58059283    -0.10200
H1021       H  0.86069102  0.09866312  0.49585606     0.07700
H1022       H  0.81625363  0.06138325  0.47354481     0.11400
H1023       H  0.80784009  0.00753943  0.58792664     0.11100
H1024       H  0.85266090  0.04473157  0.61067274     0.07700
C1025       C  0.61670464  0.11032309  0.60382599    -0.11400
C1026       C  0.61909724  0.10223404  0.56351806     0.05700
C1027       C  0.59860437  0.12057685  0.53736231    -0.10200
C1028       C  0.57686743  0.14751833  0.55107654    -0.11800
C1029       C  0.57533406  0.15698174  0.59124708    -0.01600
C1030       C  0.59513944  0.13743024  0.61752044    -0.10700
C1031       C  0.64426030  0.07705822  0.54869362     0.05700
H1032       H  0.59974522  0.11456278  0.50616663     0.07700
H1033       H  0.56194075  0.16189308  0.53003021     0.11100
H1034       H  0.59457650  0.14388176  0.64865728     0.11400
H1035       H  0.63236297  0.09694546  0.62463117     0.07700
C1036       C  0.66138807  0.08986526  0.51634895    -0.11400
C1037       C  0.68679125  0.06832781  0.50438076    -0.10700
C1038       C  0.69537365  0.03342344  0.52421618    -0.01600
C1039       C  0.67774384  0.01954980  0.55551395    -0.11800
C1040       C  0.65251255  0.04143130  0.56792949    -0.10200
H1041       H  0.65583907  0.11740131  0.50126705     0.07700
H1042       H  0.70029403  0.07943060  0.48022884     0.11400
H1043       H  0.68399069  0.99245975  0.57090689     0.11100
H1044       H  0.63957141  0.03071823  0.59273800     0.07700
C1045       C  0.49475933  0.44760879  0.85896349    -0.11400
C1046       C  0.00255207  0.40708102  0.85968817     0.05700
C1047       C  0.00796390  0.38811277  0.89589688    -0.10200
C1048       C  0.00545054  0.40949020  0.93096382    -0.11800
C1049       C  0.99792898  0.45011554  0.93004043    -0.01600
C1050       C  0.49282876  0.46907291  0.89387310    -0.10700
C1051       C  0.00446459  0.38454049  0.82266843     0.05700
H1052       H  0.01387950  0.35677279  0.89696850     0.07700
H1053       H  0.00989761  0.39468717  0.95870180     0.11100
H1054       H  0.48783868  0.50069048  0.89272962     0.11400
H1055       H  0.49073682  0.46277034  0.83130081     0.07700
C1056       C  0.97962801  0.38379739  0.79675213    -0.11400
C1057       C  0.98049556  0.36035585  0.76294168    -0.10700
C1058       C  0.00644710  0.33783207  0.75412389    -0.01600
C1059       C  0.53186614  0.34019747  0.77916179    -0.11800
C1060       C  0.53075242  0.36306328  0.81341216    -0.10200
H1061       H  0.95915983  0.40023940  0.80344257     0.07700
H1062       H  0.96057849  0.35905170  0.74419735     0.11400
H1063       H  0.55205732  0.32287650  0.77328404     0.11100
H1064       H  0.55023774  0.36363049  0.83295273     0.07700
C1065       C  0.85695837  0.11105514  0.89850478    -0.11400
C1066       C  0.86176818  0.10576021  0.93896018     0.05700
C1067       C  0.84387658  0.12737959  0.96551911    -0.10200
C1068       C  0.82248969  0.15498895  0.95189853    -0.11800
C1069       C  0.81880061  0.16179630  0.91143217    -0.01600
C1070       C  0.83579023  0.13888233  0.88488506    -0.10700
C1071       C  0.88722280  0.08064682  0.95322500     0.05700
H1072       H  0.84692289  0.12353879  0.99688305     0.07700
H1073       H  0.80968714  0.17205438  0.97307549     0.11100
H1074       H  0.83329275  0.14317562  0.85349937     0.11400
H1075       H  0.87058890  0.09507256  0.87737322     0.07700
C1076       C  0.89353301  0.04344173  0.93596971    -0.11400
C1077       C  0.91918809  0.02169074  0.94751498    -0.10700
C1078       C  0.93899648  0.03721265  0.97599676    -0.01600
C1079       C  0.93241570  0.07377796  0.99380763    -0.11800
C1080       C  0.90672186  0.09526627  0.98265132    -0.10200
H1081       H  0.87876863  0.03141733  0.91337184     0.07700
H1082       H  0.92398031  0.99333170  0.93369867     0.11400
H1083       H  0.94758183  0.08601752  0.01587035     0.11100
H1084       H  0.90272057  0.12406117  0.99602649     0.07700
C1085       C  0.64650220  0.09863634  0.90794186    -0.11400
C1086       C  0.63013785  0.10577634  0.94266242     0.05700
C1087       C  0.63718635  0.14033609  0.96455148    -0.10200
C1088       C  0.65925594  0.16725806  0.95160310    -0.11800
C1089       C  0.67414031  0.16093537  0.91592803    -0.01600
C1090       C  0.66781452  0.12627310  0.89439132    -0.10700
C1091       C  0.60470498  0.07882560  0.95472421     0.05700
H1092       H  0.62485635  0.14770727  0.99091455     0.07700
H1093       H  0.66352475  0.19412669  0.96840307     0.11100
H1094       H  0.67923807  0.12074343  0.86685220     0.11400
H1095       H  0.64263240  0.07199377  0.89074664     0.07700
C1096       C  0.58749787  0.05783008  0.92642106    -0.11400
C1097       C  0.56216059  0.03536114  0.93734511    -0.10700
C1098       C  0.55256033  0.03474984  0.97652847    -0.01600
C1099       C  0.57026724  0.05418464  0.00505752    -0.11800
C1100       C  0.59624178  0.07543198  0.99441947    -0.10200
H1101       H  0.59274138  0.05980469  0.89550540     0.07700
H1102       H  0.54926562  0.01986589  0.91490728     0.11400
H1103       H  0.56351785  0.05374949  0.03558884     0.11100
H1104       H  0.60929107  0.08977296  0.01740054     0.07700
C1105       C  0.98408897  0.06239502  0.86661161    -0.11400
C1106       C  0.49593230  0.10120892  0.86698782     0.05700
C1107       C  0.50688672  0.11736086  0.90243201    -0.10200
C1108       C  0.50603568  0.09484786  0.93702720    -0.11800
C1109       C  0.49493403  0.05562958  0.93624440    -0.01600
C1110       C  0.98388973  0.03966815  0.90087651    -0.10700
C1111       C  0.49735625  0.12434182  0.83016817     0.05700
H1112       H  0.51595073  0.14739566  0.90330088     0.07700
H1113       H  0.51453178  0.10759438  0.96415303     0.11100
H1114       H  0.97551898  0.00929301  0.89975848     0.11400
H1115       H  0.97575833  0.04930374  0.83955286     0.07700
C1116       C  0.97154285  0.12827583  0.80615049    -0.11400
C1117       C  0.97281756  0.15061021  0.77152892    -0.10700
C1118       C  0.50007371  0.16892227  0.76005943    -0.01600
C1119       C  0.52609878  0.16392272  0.78368732    -0.11800
C1120       C  0.52468065  0.14207327  0.81855286    -0.10200
H1121       H  0.95023108  0.11476932  0.81465620     0.07700
H1122       H  0.95236341  0.15403751  0.75408061     0.11400
H1123       H  0.54739584  0.17787048  0.77586340     0.11100
H1124       H  0.54493729  0.13893315  0.83646125     0.07700
C1125       C  0.90333999  0.91253951  0.01686350    -0.11400
C1126       C  0.88659654  0.92385381  0.05000344     0.05700
C1127       C  0.89544227  0.95816674  0.07097892    -0.10200
C1128       C  0.92094076  0.98013138  0.05948009    -0.11800
C1129       C  0.93810108  0.96773115  0.02722350    -0.01600
C1130       C  0.92892348  0.93419881  0.00571378    -0.10700
C1131       C  0.86152898  0.89801173  0.06404997     0.05700
H1132       H  0.88284208  0.96766909  0.09649967     0.07700
H1133       H  0.92775301  0.00609192  0.07625334     0.11100
H1134       H  0.94209816  0.92423153  0.98084147     0.11400
H1135       H  0.89738399  0.88595331  0.00050000     0.07700
C1136       C  0.84086250  0.88075559  0.03739404    -0.11400
C1137       C  0.81959081  0.85261683  0.05016168    -0.10700
C1138       C  0.81886977  0.84080901  0.08974910    -0.01600
C1139       C  0.83872732  0.85930112  0.11661835    -0.11800
C1140       C  0.85971568  0.88771334  0.10394407    -0.10200
H1141       H  0.84158489  0.88845801  0.00651577     0.07700
H1142       H  0.80453948  0.83897968  0.02880297     0.11400
H1143       H  0.83854012  0.85110378  0.14739689     0.11100
H1144       H  0.87549538  0.90022750  0.12509835     0.07700
C1145       C  0.59333284  0.92323669  0.01338316    -0.11400
C1146       C  0.60193274  0.91986821  0.05316905     0.05700
C1147       C  0.58553475  0.94195569  0.08115182    -0.10200
C1148       C  0.56089044  0.96565812  0.06978149    -0.11800
C1149       C  0.55123960  0.96657920  0.03045667    -0.01600
C1150       C  0.56805760  0.94576767  0.00231615    -0.10700
C1151       C  0.62693545  0.89225608  0.06546061     0.05700
H1152       H  0.59096811  0.94010331  0.11210856     0.07700
H1153       H  0.54876310  0.98226395  0.09191779     0.11100
H1154       H  0.56121896  0.94633629  0.97170862     0.11400
H1155       H  0.60582297  0.90809697  0.99060494     0.07700
C1156       C  0.63319507  0.85752943  0.04360295    -0.11400
C1157       C  0.65566958  0.83079928  0.05579558    -0.10700
C1158       C  0.67177896  0.83737660  0.09077057    -0.01600
C1159       C  0.66585190  0.87184050  0.11270097    -0.11800
C1160       C  0.64406843  0.89933608  0.09985840    -0.10200
H1161       H  0.62015589  0.85007892  0.01762810     0.07700
H1162       H  0.65955739  0.80403694  0.03875349     0.11400
H1163       H  0.67817619  0.87754542  0.13974038     0.11100
H1164       H  0.64068963  0.92601457  0.11710148     0.07700
C1165       C  0.97048458  0.88143930  0.20182168    -0.11400
C1166       C  0.49422011  0.88019012  0.17456391     0.05700
C1167       C  0.51976588  0.85662968  0.18238547    -0.10200
C1168       C  0.52133762  0.83386321  0.21654416    -0.11800
C1169       C  0.49717657  0.83381363  0.24332106    -0.01600
C1170       C  0.97183513  0.85815829  0.23586425    -0.10700
C1171       C  0.49264338  0.90352785  0.13799689     0.05700
H1172       H  0.53849819  0.85579440  0.16195300     0.07700
H1173       H  0.54113789  0.81533461  0.22131871     0.11100
H1174       H  0.95287673  0.85866794  0.25592773     0.11400
H1175       H  0.95060013  0.89959703  0.19622755     0.07700
C1176       C  0.98628023  0.94444498  0.13939166    -0.11400
C1177       C  0.98668034  0.96707572  0.10508614    -0.10700
C1178       C  0.49317055  0.94901508  0.06899519    -0.01600
C1179       C  0.49879758  0.90797658  0.06725701    -0.11800
C1180       C  0.49869069  0.88533219  0.10169908    -0.10200
H1181       H  0.98182566  0.95902026  0.16712703     0.07700
H1182       H  0.98241715  0.99886277  0.10665003     0.11400
H1183       H  0.50369667  0.89379309  0.03945828     0.11100
H1184       H  0.50345654  0.85367792  0.10012089     0.07700
loop_ 
_geom_bond_atom_site_label_1 
_geom_bond_atom_site_label_2 
_geom_bond_distance 
_geom_bond_site_symmetry_2 
_ccdc_geom_bond_type 
C1            C6   1.417   1_655  A
C1          C594   1.408       .  A
C1          C586   1.474       .  S
C2            C3   1.401   1_564  A
C2          C593   1.408       .  A
C2          C537   1.483       .  S
C3            C4   1.412       .  A
C3          C486   1.480       .  S
C4          C597   1.420       .  A
C4         C1109   1.482       .  S
C5            C6   1.417   1_546  A
C5          C596   1.420   1_455  A
C5          C506   1.493       .  S
C6          C557   1.492       .  S
Fe7          O23   2.056       .  S
Fe7          O13   2.054       .  S
Fe7          O20   2.061       .  S
Fe7          O12   2.063       .  S
Fe7         O610   1.971       .  S
Fe8          O11   2.056       .  S
Fe8          O15   2.063       .  S
Fe8          O19   2.059       .  S
Fe8          O24   2.059       .  S
Fe8          O18   1.973       .  S
Fe9          O21   2.077       .  S
Fe9          O10   2.074       .  S
Fe9         O619   2.082       .  S
Fe9         O606   2.077       .  S
Fe9         O610   1.985       .  S
O10          C17   1.272       .  A
O11          C25   1.269       .  A
O12          C17   1.270       .  A
O13          C16   1.265       .  A
O14        Fe601   2.077       .  S
O14          C26   1.270       .  A
O15         C620   1.268       .  A
C16         C397   1.472       .  S
C16          O21   1.270       .  A
C17         C417   1.485       .  S
O18        Fe599   1.971   1_455  S
O18        Fe601   1.985       .  S
O19          C22   1.268       .  A
O20         C614   1.269       .  A
C22         C526   1.479       .  S
C22         O612   1.269   1_455  A
O23          C28   1.267       .  A
O24          C26   1.268       .  A
C25         C386   1.486       .  S
C25          O27   1.273       .  A
C26         C437   1.486       .  S
O27        Fe601   2.082       .  S
C28         C466   1.476       .  S
C28         O607   1.268       .  A
C29          C34   1.413       .  A
C29         C622   1.414       .  A
C29         C457   1.479       .  S
C30          C31   1.408   1_556  A
C30         C621   1.414   1_455  A
C30         C277   1.485       .  S
C31         C624   1.413   1_455  A
C31         C317   1.484       .  S
C32          C33   1.417       .  A
C32         C623   1.413       .  A
C32         C357   1.480       .  S
C33          C34   1.413   1_554  A
C33         C337   1.490       .  S
C34         C297   1.487       .  S
Fe35         O51   2.061       .  S
Fe35         O41   2.052       .  S
Fe35         O48   2.056       .  S
Fe35         O40   2.051       .  S
Fe35        O638   1.961       .  S
Fe36         O39   2.052       .  S
Fe36         O43   2.065       .  S
Fe36         O47   2.059       .  S
Fe36         O52   2.062       .  S
Fe36         O46   1.961       .  S
Fe37         O49   2.088       .  S
Fe37         O38   2.079       .  S
Fe37        O647   2.074       .  S
Fe37        O634   2.089       .  S
Fe37        O638   1.971       .  S
O38          C45   1.271       .  A
O39          C53   1.267       .  A
O40          C45   1.267       .  A
O41          C44   1.269       .  A
O42        Fe629   2.089       .  S
O42          C54   1.275       .  A
O43         C648   1.269       .  A
C44         C217   1.485       .  S
C44          O49   1.275       .  A
C45         C246   1.484       .  S
O46        Fe627   1.961   1_455  S
O46        Fe629   1.971       .  S
O47          C50   1.268   1_455  A
O48         C642   1.268       .  A
C50         C577   1.475       .  S
C50         O640   1.268       .  A
O51          C56   1.268       .  A
O52          C54   1.270       .  A
C53         C197   1.482       .  S
C53          O55   1.271       .  A
C54         C257   1.488       .  S
O55        Fe629   2.074       .  S
C56         C366   1.479       .  S
C56         O635   1.269       .  A
C57          C58   1.413       .  A
C57          C62   1.415       .  A
C57         C166   1.478       .  S
C58          C59   1.406   1_565  A
C58         C266   1.485       .  S
C59          C60   1.413       .  A
C59         C446   1.482       .  S
C60          C61   1.414       .  A
C60         C177   1.478       .  S
C61          C62   1.410   1_545  A
C61         C426   1.487       .  S
C62         C237   1.487       .  S
Fe63         O79   2.061       .  S
Fe63         O69   2.053       .  S
Fe63         O76   2.055       .  S
Fe63         O68   2.068       .  S
Fe63         O74   1.969       .  S
Fe64         O67   2.069       .  S
Fe64         O71   2.059       .  S
Fe64         O75   2.058       .  S
Fe64         O80   2.055       .  S
Fe64         O74   1.968       .  S
Fe65         O83   2.070       .  S
Fe65         O70   2.073       .  S
Fe65         O77   2.074       .  S
Fe65         O66   2.071       .  S
Fe65         O74   1.982       .  S
O66          C73   1.272       .  A
O67          C81   1.272       .  A
O68          C73   1.272       .  A
O69          C72   1.265       .  A
O70          C82   1.268       .  A
O71          C84   1.269       .  A
C72         C346   1.471       .  S
C72          O77   1.268       .  A
C73         C546   1.481       .  S
O75          C78   1.268       .  A
O76          C78   1.268       .  A
C78         C157   1.473       .  S
O79          C84   1.268       .  A
O80          C82   1.265       .  A
C81         C326   1.484       .  S
C81          O83   1.273       .  A
C82         C566   1.473       .  S
C84         C146   1.475       .  S
C85          C86   1.415       .  A
C85          C90   1.413       .  A
C85         C117   1.474       .  S
C86          C87   1.410       .  A
C86         C406   1.488       .  S
C87          C88   1.411       .  A
C87         C226   1.484       .  S
C88          C89   1.412       .  A
C88         C137   1.478       .  S
C89          C90   1.407       .  A
C89         C206   1.482       .  S
C90         C377   1.487       .  S
Fe91        O107   2.056       .  S
Fe91         O97   2.051       .  S
Fe91        O104   2.055       .  S
Fe91         O96   2.059       .  S
Fe91        O102   1.972       .  S
Fe92         O95   2.065       .  S
Fe92         O99   2.064       .  S
Fe92        O103   2.060       .  S
Fe92        O108   2.057       .  S
Fe92        O102   1.976       .  S
Fe93        O111   2.068       .  S
Fe93         O98   2.074       .  S
Fe93        O105   2.074       .  S
Fe93         O94   2.078       .  S
Fe93        O102   1.985       .  S
O94         C101   1.274       .  A
O95         C109   1.271       .  A
O96         C101   1.271       .  A
O97         C100   1.264       .  A
O98         C110   1.269       .  A
O99         C112   1.270       .  A
C100        C306   1.485       .  S
C100        O105   1.268       .  A
C101        C477   1.481       .  S
O103        C106   1.267       .  A
O104        C106   1.266       .  A
C106        C186   1.479       .  S
O107        C112   1.269       .  A
O108        C110   1.266       .  A
C109        C286   1.483       .  S
C109        O111   1.271       .  A
C110        C497   1.474       .  S
C112        C126   1.473       .  S
C113        C114   1.402       .  A
C113        C118   1.393       .  A
C113        H123   1.083       .  S
C114        C115   1.406       .  A
C114        C119   1.473       .  S
C115        C116   1.397       .  A
C115        H120   1.083       .  S
C116        C117   1.400       .  A
C116        H121   1.083       .  S
C117        C118   1.401       .  A
C118        H122   1.083       .  S
C119        C124   1.404       .  A
C119        C128   1.402       .  A
C124        C125   1.396       .  A
C124        H129   1.083       .  S
C125        C126   1.404       .  A
C125        H130   1.083       .  S
C126        C127   1.405       .  A
C127        C128   1.395       .  A
C127        H131   1.083       .  S
C128        H132   1.084       .  S
C133        C134   1.406       .  A
C133        C138   1.398       .  A
C133        H143   1.083       .  S
C134        C135   1.402       .  A
C134        C139   1.474       .  S
C135        C136   1.393       .  A
C135        H140   1.083       .  S
C136        C137   1.402       .  A
C136        H141   1.083       .  S
C137        C138   1.401       .  A
C138        H142   1.083       .  S
C139        C144   1.402       .  A
C139        C148   1.404       .  A
C144        C145   1.395       .  A
C144        H149   1.084       .  S
C145        C146   1.406       .  A
C145        H150   1.083       .  S
C146        C147   1.405       .  A
C147        C148   1.397       .  A
C147        H151   1.083       .  S
C148        H152   1.083       .  S
C153        C154   1.404       .  A
C153        C158   1.395       .  A
C153        H163   1.083       .  S
C154        C155   1.402       .  A
C154        C159   1.474       .  S
C155        C156   1.395       .  A
C155        H160   1.083       .  S
C156        C157   1.405       .  A
C156        H161   1.083       .  S
C157        C158   1.404       .  A
C158        H162   1.083       .  S
C159        C164   1.402       .  A
C159        C168   1.406       .  A
C164        C165   1.393       .  A
C164        H169   1.083       .  S
C165        C166   1.402       .  A
C165        H170   1.083       .  S
C166        C167   1.401       .  A
C167        C168   1.396       .  A
C167        H171   1.083       .  S
C168        H172   1.083       .  S
C173        C174   1.406       .  A
C173        C178   1.397       .  A
C173        H183   1.083       .  S
C174        C175   1.401       .  A
C174        C179   1.474       .  S
C175        C176   1.393       .  A
C175        H180   1.083       .  S
C176        C177   1.402       .  A
C176        H181   1.083       .  S
C177        C178   1.401       .  A
C178        H182   1.083       .  S
C179        C184   1.401       .  A
C179        C188   1.404       .  A
C184        C185   1.394       .  A
C184        H189   1.084       .  S
C185        C186   1.408       .  A
C185        H190   1.083       .  S
C186        C187   1.406       .  A
C187        C188   1.397       .  A
C187        H191   1.083       .  S
C188        H192   1.083       .  S
C193        C194   1.408       .  A
C193        C198   1.401       .  A
C193        H203   1.083       .  S
C194        C195   1.403       .  A
C194        C199   1.484       .  S
C195        C196   1.393       .  A
C195        H200   1.083       .  S
C196        C197   1.407       .  A
C196        H201   1.083       .  S
C197        C198   1.405       .  A
C198        H202   1.083       .  S
C199        C204   1.405       .  A
C199        C208   1.409       .  A
C204        C205   1.395       .  A
C204        H209   1.083       .  S
C205        C206   1.402       .  A
C205        H210   1.083       .  S
C206        C207   1.401       .  A
C207        C208   1.398       .  A
C207        H211   1.083       .  S
C208        H212   1.083       .  S
C213        C214   1.406       .  A
C213        C218   1.400       .  A
C213        H223   1.083       .  S
C214        C215   1.404       .  A
C214        C219   1.485       .  S
C215        C216   1.397       .  A
C215        H220   1.083       .  S
C216        C217   1.408       .  A
C216        H221   1.083       .  S
C217        C218   1.406       .  A
C218        H222   1.083       .  S
C219        C224   1.408       .  A
C219        C228   1.406       .  A
C224        C225   1.399       .  A
C224        H229   1.083       .  S
C225        C226   1.402       .  A
C225        H230   1.082       .  S
C226        C227   1.401       .  A
C227        C228   1.396       .  A
C227        H231   1.083       .  S
C228        H232   1.083       .  S
C233        C234   1.408       .  A
C233        C238   1.398       .  A
C233        H243   1.083       .  S
C234        C235   1.404       .  A
C234        C239   1.484       .  S
C235        C236   1.396       .  A
C235        H240   1.083       .  S
C236        C237   1.404       .  A
C236        H241   1.083       .  S
C237        C238   1.402       .  A
C238        H242   1.083       .  S
C239        C244   1.402       .  A
C239        C248   1.408       .  A
C244        C245   1.391       .  A
C244        H249   1.083       .  S
C245        C246   1.408       .  A
C245        H250   1.083       .  S
C246        C247   1.406       .  A
C247        C248   1.404       .  A
C247        H251   1.083       .  S
C248        H252   1.083       .  S
C253        C254   1.405       .  A
C253        C258   1.401       .  A
C253        H263   1.083       .  S
C254        C255   1.408       .  A
C254        C259   1.491       .  S
C255        C256   1.400       .  A
C255        H260   1.083       .  S
C256        C257   1.406       .  A
C256        H261   1.083       .  S
C257        C258   1.408       .  A
C258        H262   1.083       .  S
C259        C264   1.406       .  A
C259        C268   1.410       .  A
C264        C265   1.395       .  A
C264        H269   1.083       .  S
C265        C266   1.400       .  A
C265        H270   1.084       .  S
C266        C267   1.403       .  A
C267        C268   1.404       .  A
C267        H271   1.083   1_565  S
C268        H272   1.083       .  S
C273        C274   1.407       .  A
C273        C278   1.399       .  A
C273        H283   1.083       .  S
C274        C275   1.405       .  A
C274        C279   1.483       .  S
C275        C276   1.394       .  A
C275        H280   1.083   1_556  S
C276        C277   1.402       .  A
C276        H281   1.083   1_556  S
C277        C278   1.403       .  A
C278        H282   1.083       .  S
C279        C284   1.404       .  A
C279        C288   1.405       .  A
C284        C285   1.397       .  A
C284        H289   1.083       .  S
C285        C286   1.407       .  A
C285        H290   1.083       .  S
C286        C287   1.406       .  A
C287        C288   1.398       .  A
C287        H291   1.083       .  S
C288        H292   1.083       .  S
C293        C294   1.409       .  A
C293        C298   1.400       .  A
C293        H303   1.083       .  S
C294        C295   1.407       .  A
C294        C299   1.490       .  S
C295        C296   1.397       .  A
C295        H300   1.082   1_556  S
C296        C297   1.401       .  A
C296        H301   1.083   1_556  S
C297        C298   1.402       .  A
C298        H302   1.082       .  S
C299        C304   1.408       .  A
C299        C308   1.405       .  A
C304        C305   1.402       .  A
C304        H309   1.083       .  S
C305        C306   1.406       .  A
C305        H310   1.083       .  S
C306        C307   1.407       .  A
C307        C308   1.396       .  A
C307        H311   1.083       .  S
C308        H312   1.083       .  S
C313        C314   1.407       .  A
C313        C318   1.399       .  A
C313        H323   1.083       .  S
C314        C315   1.405       .  A
C314        C319   1.483       .  S
C315        C316   1.395       .  A
C315        H320   1.083   1_554  S
C316        C317   1.401       .  A
C316        H321   1.083   1_554  S
C317        C318   1.402       .  A
C318        H322   1.082       .  S
C319        C324   1.403       .  A
C319        C328   1.406       .  A
C324        C325   1.396       .  A
C324        H329   1.083       .  S
C325        C326   1.407       .  A
C325        H330   1.083       .  S
C326        C327   1.406       .  A
C327        C328   1.400       .  A
C327        H331   1.083       .  S
C328        H332   1.083       .  S
C333        C334   1.408       .  A
C333        C338   1.395   1_554  A
C333        H343   1.081   1_554  S
C334        C335   1.412       .  A
C334        C339   1.496       .  S
C335        C336   1.398       .  A
C335        H340   1.081       .  S
C336        C337   1.402       .  A
C336        H341   1.082       .  S
C337        C338   1.403   1_554  A
C338        H342   1.083       .  S
C339        C344   1.412       .  A
C339        C348   1.409       .  A
C344        C345   1.398       .  A
C344        H349   1.081       .  S
C345        C346   1.400       .  A
C345        H350   1.083       .  S
C346        C347   1.401       .  A
C347        C348   1.398       .  A
C347        H351   1.083       .  S
C348        H352   1.081       .  S
C353        C354   1.407       .  A
C353        C358   1.398       .  A
C353        H363   1.083       .  S
C354        C947   1.402       .  A
C354        C359   1.476       .  S
C355        C356   1.395       .  A
C355        C946   1.402   1_455  A
C355        H360   1.083       .  S
C356        C949   1.403   1_455  A
C356        H361   1.083       .  S
C357        C358   1.400       .  A
C357        C948   1.403       .  A
C358        H362   1.083       .  S
C359        C364   1.401       .  A
C359        C960   1.405       .  A
C364        C365   1.394       .  A
C364        H369   1.083       .  S
C365        C366   1.407       .  A
C365        H370   1.083       .  S
C366        C959   1.406       .  A
C367        C368   1.399       .  A
C367        C958   1.406   1_455  A
C367        H371   1.083       .  S
C368        C951   1.405   1_455  A
C368        H372   1.083       .  S
C373        C374   1.405       .  A
C373        C378   1.397       .  A
C373        H383   1.083       .  S
C374        C375   1.410       .  A
C374        C379   1.488       .  S
C375        C376   1.399       .  A
C375        H380   1.083       .  S
C376        C377   1.401       .  A
C376        H381   1.082       .  S
C377        C378   1.403       .  A
C378        H382   1.083       .  S
C379        C384   1.409       .  A
C379        C388   1.403       .  A
C384        C385   1.404       .  A
C384        H389   1.083       .  S
C385        C386   1.407       .  A
C385        H390   1.083       .  S
C386        C387   1.407       .  A
C387        C388   1.393       .  A
C387        H391   1.083       .  S
C388        H392   1.083       .  S
C393        C394   1.412       .  A
C393        C398   1.397       .  A
C393        H403   1.081       .  S
C394        C395   1.410       .  A
C394        C399   1.499       .  S
C395        C396   1.399       .  A
C395        H400   1.081       .  S
C396        C397   1.402       .  A
C396        H401   1.083       .  S
C397        C398   1.399       .  A
C398        H402   1.084       .  S
C399        C404   1.409       .  A
C399        C408   1.412       .  A
C404        C405   1.394       .  A
C404        H409   1.081       .  S
C405        C406   1.401       .  A
C405        H410   1.083       .  S
C406        C407   1.402       .  A
C407        C408   1.400       .  A
C407        H411   1.081       .  S
C408        H412   1.081       .  S
C413        C414   1.407       .  A
C413        C418   1.400       .  A
C413        H423   1.083       .  S
C414        C415   1.404       .  A
C414        C419   1.487       .  S
C415        C416   1.396       .  A
C415        H420   1.083       .  S
C416        C417   1.408       .  A
C416        H421   1.083       .  S
C417        C418   1.406       .  A
C418        H422   1.083       .  S
C419        C424   1.405       .  A
C419        C428   1.409       .  A
C424        C425   1.395       .  A
C424        H429   1.083       .  S
C425        C426   1.402       .  A
C425        H430   1.083       .  S
C426        C427   1.403       .  A
C427        C428   1.400       .  A
C427        H431   1.083       .  S
C428        H432   1.083       .  S
C433        C434   1.404       .  A
C433        C438   1.398       .  A
C433        H443   1.083       .  S
C434        C435   1.406       .  A
C434        C439   1.486       .  S
C435        C436   1.400       .  A
C435        H440   1.083       .  S
C436        C437   1.407       .  A
C436        H441   1.083       .  S
C437        C438   1.408       .  A
C438        H442   1.083       .  S
C439        C444   1.406       .  A
C439        C448   1.408       .  A
C444        C445   1.396       .  A
C444        H449   1.083       .  S
C445        C446   1.401       .  A
C445        H450   1.083       .  S
C446        C447   1.401       .  A
C447        C448   1.401       .  A
C447        H451   1.083   1_545  S
C448        H452   1.083       .  S
C453        C458   1.394       .  A
C453       C1046   1.401   1_655  A
C453        H463   1.083       .  S
C454        C455   1.405       .  A
C454       C1045   1.401       .  A
C454        C459   1.474       .  S
C455        C456   1.399       .  A
C455        H460   1.083       .  S
C456        C457   1.402       .  A
C456        H461   1.083       .  S
C457       C1050   1.402       .  A
C458       C1049   1.402       .  A
C458        H462   1.083       .  S
C459        C464   1.402       .  A
C459       C1060   1.403       .  A
C464        C465   1.396       .  A
C464        H469   1.083       .  S
C465        C466   1.405       .  A
C465        H470   1.083       .  S
C466       C1059   1.406       .  A
C467        C468   1.398       .  A
C467       C1058   1.406       .  A
C467        H471   1.083       .  S
C468       C1051   1.403       .  A
C468        H472   1.084       .  S
C473        C474   1.404       .  A
C473        C478   1.397       .  A
C473        H483   1.083       .  S
C474        C475   1.406       .  A
C474        C479   1.482       .  S
C475        C476   1.398       .  A
C475        H480   1.083       .  S
C476        C477   1.405       .  A
C476        H481   1.083       .  S
C477        C478   1.407       .  A
C478        H482   1.083       .  S
C479        C484   1.408       .  A
C479        C488   1.405       .  A
C484        C485   1.400       .  A
C484        H489   1.083       .  S
C485        C486   1.402       .  A
C485        H490   1.083   1_545  S
C486        C487   1.400       .  A
C487        C488   1.393       .  A
C487        H491   1.084   1_556  S
C488        H492   1.083       .  S
C493        C494   1.410       .  A
C493        C498   1.398       .  A
C493        H503   1.081       .  S
C494        C495   1.412       .  A
C494        C499   1.498       .  S
C495        C496   1.399       .  A
C495        H500   1.081       .  S
C496        C497   1.401       .  A
C496        H501   1.083       .  S
C497        C498   1.402       .  A
C498        H502   1.084       .  S
C499        C504   1.411       .  A
C499        C508   1.409       .  A
C504        C505   1.398       .  A
C504        H509   1.081       .  S
C505        C506   1.402       .  A
C505        H510   1.083       .  S
C506        C507   1.403   1_556  A
C507        C508   1.397   1_554  A
C507        H511   1.083       .  S
C508        H512   1.081   1_556  S
C513        C518   1.392       .  A
C513       C1106   1.401       .  A
C513        H523   1.083       .  S
C514        C515   1.406   1_655  A
C514       C1105   1.401       .  A
C514        C519   1.475       .  S
C515        C516   1.399       .  A
C515        H520   1.083       .  S
C516        C517   1.402   1_455  A
C516        H521   1.083       .  S
C517       C1110   1.403       .  A
C517        C596   1.482       .  S
C518       C1109   1.403       .  A
C518        H522   1.083       .  S
C519        C528   1.402   1_655  A
C519       C1116   1.404       .  A
C524        C525   1.397       .  A
C524       C1111   1.404       .  A
C524        H529   1.083       .  S
C525       C1118   1.406       .  A
C525        H530   1.083       .  S
C526        C527   1.407       .  A
C526       C1117   1.406   1_455  A
C527        C528   1.396       .  A
C527        H531   1.083       .  S
C528        H532   1.083       .  S
C533        C534   1.405       .  A
C533        C538   1.395       .  A
C533        H543   1.083       .  S
C534        C535   1.408       .  A
C534        C539   1.484       .  S
C535        C536   1.401       .  A
C535        H540   1.083       .  S
C536        C537   1.401       .  A
C536        H541   1.083   1_565  S
C537        C538   1.400       .  A
C538        H542   1.083   1_554  S
C539        C544   1.407       .  A
C539        C548   1.404       .  A
C544        C545   1.400       .  A
C544        H549   1.083       .  S
C545        C546   1.405       .  A
C545        H550   1.083       .  S
C546        C547   1.407       .  A
C547        C548   1.397       .  A
C547        H551   1.083       .  S
C548        H552   1.083       .  S
C553        C554   1.409       .  A
C553        C558   1.396       .  A
C553        H563   1.081   1_554  S
C554        C555   1.411       .  A
C554        C559   1.497       .  S
C555        C556   1.399       .  A
C555        H560   1.081       .  S
C556        C557   1.403       .  A
C556        H561   1.082       .  S
C557        C558   1.402       .  A
C558        H562   1.083   1_554  S
C559        C564   1.411       .  A
C559        C568   1.410       .  A
C564        C565   1.397       .  A
C564        H569   1.081       .  S
C565        C566   1.401       .  A
C565        H570   1.083       .  S
C566        C567   1.402       .  A
C567        C568   1.399       .  A
C567        H571   1.083       .  S
C568        H572   1.081       .  S
C573        C578   1.397       .  A
C573       C1166   1.404       .  A
C573        H583   1.083       .  S
C574        C575   1.400   1_655  A
C574       C1165   1.404       .  A
C574        C579   1.471       .  S
C575        C576   1.391       .  A
C575        H580   1.084       .  S
C576        C577   1.406   1_455  A
C576        H581   1.083       .  S
C577       C1170   1.406       .  A
C578       C1169   1.406       .  A
C578        H582   1.083       .  S
C579        C588   1.406       .  A
C579       C1176   1.401       .  A
C584        C585   1.392       .  A
C584       C1171   1.401       .  A
C584        H589   1.083       .  S
C585       C1178   1.402       .  A
C585        H590   1.083       .  S
C586        C587   1.399       .  A
C586       C1177   1.402       .  A
C587        C588   1.396       .  A
C587        H591   1.083   1_655  S
C588        H592   1.083   1_655  S
C593        C598   1.417       .  A
C593       C1178   1.474       .  S
C594        C595   1.401   1_564  A
C594       C1129   1.483       .  S
C595        C596   1.412       .  A
C595       C1078   1.480       .  S
C597        C598   1.417   1_546  A
C597       C1098   1.493       .  S
C598       C1149   1.492       .  S
Fe599       O615   2.056       .  S
Fe599       O605   2.054       .  S
Fe599       O612   2.061       .  S
Fe599       O604   2.063       .  S
Fe600       O603   2.056       .  S
Fe600       O607   2.063       .  S
Fe600       O611   2.059       .  S
Fe600       O616   2.059       .  S
Fe600       O610   1.973       .  S
Fe601       O613   2.077   1_455  S
Fe601       O602   2.074   1_455  S
O602        C609   1.272       .  A
O603        C617   1.269       .  A
O604        C609   1.270       .  A
O605        C608   1.265       .  A
O606        C618   1.270       .  A
C608        C989   1.472       .  S
C608        O613   1.270       .  A
C609       C1009   1.485       .  S
O611        C614   1.268       .  A
C614       C1118   1.479       .  S
O615        C620   1.267   1_655  A
O616        C618   1.268       .  A
C617        C978   1.486       .  S
C617        O619   1.273       .  A
C618       C1029   1.486       .  S
C620       C1058   1.476       .  S
C621        C626   1.413       .  A
C621       C1049   1.479       .  S
C622        C623   1.408   1_556  A
C622        C869   1.485       .  S
C623        C909   1.484       .  S
C624        C625   1.417       .  A
C624        C949   1.480       .  S
C625        C626   1.413   1_554  A
C625        C929   1.490       .  S
C626        C889   1.487       .  S
Fe627       O643   2.061       .  S
Fe627       O633   2.052       .  S
Fe627       O640   2.056       .  S
Fe627       O632   2.051       .  S
Fe628       O631   2.052       .  S
Fe628       O635   2.065       .  S
Fe628       O639   2.059       .  S
Fe628       O644   2.062       .  S
Fe628       O638   1.961       .  S
Fe629       O641   2.088   1_455  S
Fe629       O630   2.079   1_455  S
O630        C637   1.271       .  A
O631        C645   1.267       .  A
O632        C637   1.267       .  A
O633        C636   1.269       .  A
O634        C646   1.275       .  A
C636        C809   1.485       .  S
C636        O641   1.275       .  A
C637        C838   1.484       .  S
O639        C642   1.268       .  A
C642       C1169   1.475       .  S
O643        C648   1.268   1_655  A
O644        C646   1.270       .  A
C645        C789   1.482       .  S
C645        O647   1.271       .  A
C646        C849   1.488       .  S
C648        C958   1.479   1_455  S
C649        C650   1.413       .  A
C649        C654   1.415       .  A
C649        C758   1.478       .  S
C650        C651   1.406   1_565  A
C650        C858   1.485       .  S
C651        C652   1.413       .  A
C651       C1038   1.482       .  S
C652        C653   1.414       .  A
C652        C769   1.478       .  S
C653        C654   1.410   1_545  A
C653       C1018   1.487       .  S
C654        C829   1.487       .  S
Fe655       O671   2.061       .  S
Fe655       O661   2.053       .  S
Fe655       O668   2.055       .  S
Fe655       O660   2.068       .  S
Fe655       O666   1.969       .  S
Fe656       O659   2.069       .  S
Fe656       O663   2.059       .  S
Fe656       O667   2.058       .  S
Fe656       O672   2.055       .  S
Fe656       O666   1.968       .  S
Fe657       O675   2.070       .  S
Fe657       O662   2.073       .  S
Fe657       O669   2.074       .  S
Fe657       O658   2.071       .  S
Fe657       O666   1.982       .  S
O658        C665   1.272       .  A
O659        C673   1.272       .  A
O660        C665   1.272       .  A
O661        C664   1.265       .  A
O662        C674   1.268       .  A
O663        C676   1.269       .  A
C664        C938   1.471       .  S
C664        O669   1.268       .  A
C665       C1138   1.481       .  S
O667        C670   1.268       .  A
O668        C670   1.268       .  A
C670        C749   1.473       .  S
O671        C676   1.268       .  A
O672        C674   1.265       .  A
C673        C918   1.484       .  S
C673        O675   1.273       .  A
C674       C1158   1.473       .  S
C676        C738   1.475       .  S
C677        C678   1.415       .  A
C677        C682   1.413       .  A
C677        C709   1.474       .  S
C678        C679   1.410       .  A
C678        C998   1.488       .  S
C679        C680   1.411       .  A
C679        C818   1.484       .  S
C680        C681   1.412       .  A
C680        C729   1.478       .  S
C681        C682   1.407       .  A
C681        C798   1.482       .  S
C682        C969   1.487       .  S
Fe683       O699   2.056       .  S
Fe683       O689   2.051       .  S
Fe683       O696   2.055       .  S
Fe683       O688   2.059       .  S
Fe683       O694   1.972       .  S
Fe684       O687   2.065       .  S
Fe684       O691   2.064       .  S
Fe684       O695   2.060       .  S
Fe684       O700   2.057       .  S
Fe684       O694   1.976       .  S
Fe685       O703   2.068       .  S
Fe685       O690   2.074       .  S
Fe685       O697   2.074       .  S
Fe685       O686   2.078       .  S
Fe685       O694   1.985       .  S
O686        C693   1.274       .  A
O687        C701   1.271       .  A
O688        C693   1.271       .  A
O689        C692   1.264       .  A
O690        C702   1.269       .  A
O691        C704   1.270       .  A
C692        C898   1.485       .  S
C692        O697   1.268       .  A
C693       C1069   1.481       .  S
O695        C698   1.267       .  A
O696        C698   1.266       .  A
C698        C778   1.479       .  S
O699        C704   1.269       .  A
O700        C702   1.266       .  A
C701        C878   1.483       .  S
C701        O703   1.271       .  A
C702       C1089   1.474       .  S
C704        C718   1.473       .  S
C705        C706   1.402       .  A
C705        C710   1.393       .  A
C705        H715   1.083       .  S
C706        C707   1.406       .  A
C706        C711   1.473       .  S
C707        C708   1.397       .  A
C707        H712   1.083       .  S
C708        C709   1.400       .  A
C708        H713   1.083       .  S
C709        C710   1.401       .  A
C710        H714   1.083       .  S
C711        C716   1.404       .  A
C711        C720   1.402       .  A
C716        C717   1.396       .  A
C716        H721   1.083       .  S
C717        C718   1.404       .  A
C717        H722   1.083       .  S
C718        C719   1.405       .  A
C719        C720   1.395       .  A
C719        H723   1.083       .  S
C720        H724   1.084       .  S
C725        C726   1.406       .  A
C725        C730   1.398       .  A
C725        H735   1.083       .  S
C726        C727   1.402       .  A
C726        C731   1.474       .  S
C727        C728   1.393       .  A
C727        H732   1.083       .  S
C728        C729   1.402       .  A
C728        H733   1.083       .  S
C729        C730   1.401       .  A
C730        H734   1.083       .  S
C731        C736   1.402       .  A
C731        C740   1.404       .  A
C736        C737   1.395       .  A
C736        H741   1.084       .  S
C737        C738   1.406       .  A
C737        H742   1.083       .  S
C738        C739   1.405       .  A
C739        C740   1.397       .  A
C739        H743   1.083       .  S
C740        H744   1.083       .  S
C745        C746   1.404       .  A
C745        C750   1.395       .  A
C745        H755   1.083       .  S
C746        C747   1.402       .  A
C746        C751   1.474       .  S
C747        C748   1.395       .  A
C747        H752   1.083       .  S
C748        C749   1.405       .  A
C748        H753   1.083       .  S
C749        C750   1.404       .  A
C750        H754   1.083       .  S
C751        C756   1.402       .  A
C751        C760   1.406       .  A
C756        C757   1.393       .  A
C756        H761   1.083       .  S
C757        C758   1.402       .  A
C757        H762   1.083       .  S
C758        C759   1.401       .  A
C759        C760   1.396       .  A
C759        H763   1.083       .  S
C760        H764   1.083       .  S
C765        C766   1.406       .  A
C765        C770   1.397       .  A
C765        H775   1.083       .  S
C766        C767   1.401       .  A
C766        C771   1.474       .  S
C767        C768   1.393       .  A
C767        H772   1.083       .  S
C768        C769   1.402       .  A
C768        H773   1.083       .  S
C769        C770   1.401       .  A
C770        H774   1.083       .  S
C771        C776   1.401       .  A
C771        C780   1.404       .  A
C776        C777   1.394       .  A
C776        H781   1.084       .  S
C777        C778   1.408       .  A
C777        H782   1.083       .  S
C778        C779   1.406       .  A
C779        C780   1.397       .  A
C779        H783   1.083       .  S
C780        H784   1.083       .  S
C785        C786   1.408       .  A
C785        C790   1.401       .  A
C785        H795   1.083       .  S
C786        C787   1.403       .  A
C786        C791   1.484       .  S
C787        C788   1.393       .  A
C787        H792   1.083       .  S
C788        C789   1.407       .  A
C788        H793   1.083       .  S
C789        C790   1.405       .  A
C790        H794   1.083       .  S
C791        C796   1.405       .  A
C791        C800   1.409       .  A
C796        C797   1.395       .  A
C796        H801   1.083       .  S
C797        C798   1.402       .  A
C797        H802   1.083       .  S
C798        C799   1.401       .  A
C799        C800   1.398       .  A
C799        H803   1.083       .  S
C800        H804   1.083       .  S
C805        C806   1.406       .  A
C805        C810   1.400       .  A
C805        H815   1.083       .  S
C806        C807   1.404       .  A
C806        C811   1.485       .  S
C807        C808   1.397       .  A
C807        H812   1.083       .  S
C808        C809   1.408       .  A
C808        H813   1.083       .  S
C809        C810   1.406       .  A
C810        H814   1.083       .  S
C811        C816   1.408       .  A
C811        C820   1.406       .  A
C816        C817   1.399       .  A
C816        H821   1.083       .  S
C817        C818   1.402       .  A
C817        H822   1.082       .  S
C818        C819   1.401       .  A
C819        C820   1.396       .  A
C819        H823   1.083       .  S
C820        H824   1.083       .  S
C825        C826   1.408       .  A
C825        C830   1.398       .  A
C825        H835   1.083       .  S
C826        C827   1.404       .  A
C826        C831   1.484       .  S
C827        C828   1.396       .  A
C827        H832   1.083       .  S
C828        C829   1.404       .  A
C828        H833   1.083       .  S
C829        C830   1.402       .  A
C830        H834   1.083       .  S
C831        C836   1.402       .  A
C831        C840   1.408       .  A
C836        C837   1.391       .  A
C836        H841   1.083       .  S
C837        C838   1.408       .  A
C837        H842   1.083       .  S
C838        C839   1.406       .  A
C839        C840   1.404       .  A
C839        H843   1.083       .  S
C840        H844   1.083       .  S
C845        C846   1.405       .  A
C845        C850   1.401       .  A
C845        H855   1.083       .  S
C846        C847   1.408       .  A
C846        C851   1.491       .  S
C847        C848   1.400       .  A
C847        H852   1.083       .  S
C848        C849   1.406       .  A
C848        H853   1.083       .  S
C849        C850   1.408       .  A
C850        H854   1.083       .  S
C851        C856   1.406       .  A
C851        C860   1.410       .  A
C856        C857   1.395       .  A
C856        H861   1.083       .  S
C857        C858   1.400       .  A
C857        H862   1.084       .  S
C858        C859   1.403       .  A
C859        C860   1.404       .  A
C859        H863   1.083   1_565  S
C860        H864   1.083       .  S
C865        C866   1.407       .  A
C865        C870   1.399       .  A
C865        H875   1.083       .  S
C866        C867   1.405       .  A
C866        C871   1.483       .  S
C867        C868   1.394       .  A
C867        H872   1.083   1_556  S
C868        C869   1.402       .  A
C868        H873   1.083   1_556  S
C869        C870   1.403       .  A
C870        H874   1.083       .  S
C871        C876   1.404       .  A
C871        C880   1.405       .  A
C876        C877   1.397       .  A
C876        H881   1.083       .  S
C877        C878   1.407       .  A
C877        H882   1.083       .  S
C878        C879   1.406       .  A
C879        C880   1.398       .  A
C879        H883   1.083       .  S
C880        H884   1.083       .  S
C885        C886   1.409       .  A
C885        C890   1.400       .  A
C885        H895   1.083       .  S
C886        C887   1.407       .  A
C886        C891   1.490       .  S
C887        C888   1.397       .  A
C887        H892   1.082   1_556  S
C888        C889   1.401       .  A
C888        H893   1.083   1_556  S
C889        C890   1.402       .  A
C890        H894   1.082       .  S
C891        C896   1.408       .  A
C891        C900   1.405       .  A
C896        C897   1.402       .  A
C896        H901   1.083       .  S
C897        C898   1.406       .  A
C897        H902   1.083       .  S
C898        C899   1.407       .  A
C899        C900   1.396       .  A
C899        H903   1.083       .  S
C900        H904   1.083       .  S
C905        C906   1.407       .  A
C905        C910   1.399       .  A
C905        H915   1.083       .  S
C906        C907   1.405       .  A
C906        C911   1.483       .  S
C907        C908   1.395       .  A
C907        H912   1.083   1_554  S
C908        C909   1.401       .  A
C908        H913   1.083   1_554  S
C909        C910   1.402       .  A
C910        H914   1.082       .  S
C911        C916   1.403       .  A
C911        C920   1.406       .  A
C916        C917   1.396       .  A
C916        H921   1.083       .  S
C917        C918   1.407       .  A
C917        H922   1.083       .  S
C918        C919   1.406       .  A
C919        C920   1.400       .  A
C919        H923   1.083       .  S
C920        H924   1.083       .  S
C925        C926   1.408       .  A
C925        C930   1.395   1_554  A
C925        H935   1.081   1_554  S
C926        C927   1.412       .  A
C926        C931   1.496       .  S
C927        C928   1.398       .  A
C927        H932   1.081       .  S
C928        C929   1.402       .  A
C928        H933   1.082       .  S
C929        C930   1.403   1_554  A
C930        H934   1.083       .  S
C931        C936   1.412       .  A
C931        C940   1.409       .  A
C936        C937   1.398       .  A
C936        H941   1.081       .  S
C937        C938   1.400       .  A
C937        H942   1.083       .  S
C938        C939   1.401       .  A
C939        C940   1.398       .  A
C939        H943   1.083       .  S
C940        H944   1.081       .  S
C945        C946   1.407       .  A
C945        C950   1.398       .  A
C945        H955   1.083       .  S
C946        C951   1.476       .  S
C947        C948   1.395       .  A
C947        H952   1.083       .  S
C948        H953   1.083       .  S
C949        C950   1.400       .  A
C950        H954   1.083       .  S
C951        C956   1.401       .  A
C956        C957   1.394       .  A
C956        H961   1.083       .  S
C957        C958   1.407       .  A
C957        H962   1.083       .  S
C959        C960   1.399       .  A
C959        H963   1.083       .  S
C960        H964   1.083       .  S
C965        C966   1.405       .  A
C965        C970   1.397       .  A
C965        H975   1.083       .  S
C966        C967   1.410       .  A
C966        C971   1.488       .  S
C967        C968   1.399       .  A
C967        H972   1.083       .  S
C968        C969   1.401       .  A
C968        H973   1.082       .  S
C969        C970   1.403       .  A
C970        H974   1.083       .  S
C971        C976   1.409       .  A
C971        C980   1.403       .  A
C976        C977   1.404       .  A
C976        H981   1.083       .  S
C977        C978   1.407       .  A
C977        H982   1.083       .  S
C978        C979   1.407       .  A
C979        C980   1.393       .  A
C979        H983   1.083       .  S
C980        H984   1.083       .  S
C985        C986   1.412       .  A
C985        C990   1.397       .  A
C985        H995   1.081       .  S
C986        C987   1.410       .  A
C986        C991   1.499       .  S
C987        C988   1.400       .  A
C987        H992   1.081       .  S
C988        C989   1.402       .  A
C988        H993   1.083       .  S
C989        C990   1.399       .  A
C990        H994   1.084       .  S
C991        C996   1.409       .  A
C991       C1000   1.412       .  A
C996        C997   1.394       .  A
C996       H1001   1.081       .  S
C997        C998   1.401       .  A
C997       H1002   1.083       .  S
C998        C999   1.402       .  A
C999       C1000   1.400       .  A
C999       H1003   1.081       .  S
C1000      H1004   1.081       .  S
C1005      C1006   1.407       .  A
C1005      C1010   1.400       .  A
C1005      H1015   1.083       .  S
C1006      C1007   1.404       .  A
C1006      C1011   1.487       .  S
C1007      C1008   1.396       .  A
C1007      H1012   1.083       .  S
C1008      C1009   1.408       .  A
C1008      H1013   1.083       .  S
C1009      C1010   1.406       .  A
C1010      H1014   1.083       .  S
C1011      C1016   1.405       .  A
C1011      C1020   1.409       .  A
C1016      C1017   1.395       .  A
C1016      H1021   1.083       .  S
C1017      C1018   1.402       .  A
C1017      H1022   1.083       .  S
C1018      C1019   1.403       .  A
C1019      C1020   1.400       .  A
C1019      H1023   1.083       .  S
C1020      H1024   1.083       .  S
C1025      C1026   1.404       .  A
C1025      C1030   1.398       .  A
C1025      H1035   1.083       .  S
C1026      C1027   1.406       .  A
C1026      C1031   1.486       .  S
C1027      C1028   1.400       .  A
C1027      H1032   1.083       .  S
C1028      C1029   1.407       .  A
C1028      H1033   1.083       .  S
C1029      C1030   1.408       .  A
C1030      H1034   1.083       .  S
C1031      C1036   1.406       .  A
C1031      C1040   1.408       .  A
C1036      C1037   1.396       .  A
C1036      H1041   1.083       .  S
C1037      C1038   1.401       .  A
C1037      H1042   1.083       .  S
C1038      C1039   1.401       .  A
C1039      C1040   1.401       .  A
C1039      H1043   1.083   1_545  S
C1040      H1044   1.083       .  S
C1045      C1050   1.394       .  A
C1045      H1055   1.083       .  S
C1046      C1047   1.405       .  A
C1046      C1051   1.474       .  S
C1047      C1048   1.399       .  A
C1047      H1052   1.083       .  S
C1048      C1049   1.402   1_455  A
C1048      H1053   1.083       .  S
C1050      H1054   1.083       .  S
C1051      C1056   1.402   1_455  A
C1056      C1057   1.396       .  A
C1056      H1061   1.083       .  S
C1057      C1058   1.405   1_655  A
C1057      H1062   1.083       .  S
C1059      C1060   1.398       .  A
C1059      H1063   1.083       .  S
C1060      H1064   1.084       .  S
C1065      C1066   1.404       .  A
C1065      C1070   1.397       .  A
C1065      H1075   1.083       .  S
C1066      C1067   1.406       .  A
C1066      C1071   1.482       .  S
C1067      C1068   1.398       .  A
C1067      H1072   1.083       .  S
C1068      C1069   1.405       .  A
C1068      H1073   1.083       .  S
C1069      C1070   1.407       .  A
C1070      H1074   1.083       .  S
C1071      C1076   1.408       .  A
C1071      C1080   1.405       .  A
C1076      C1077   1.400       .  A
C1076      H1081   1.083       .  S
C1077      C1078   1.402       .  A
C1077      H1082   1.083   1_545  S
C1078      C1079   1.400       .  A
C1079      C1080   1.393       .  A
C1079      H1083   1.084   1_556  S
C1080      H1084   1.083       .  S
C1085      C1086   1.410       .  A
C1085      C1090   1.398       .  A
C1085      H1095   1.081       .  S
C1086      C1087   1.412       .  A
C1086      C1091   1.498       .  S
C1087      C1088   1.399       .  A
C1087      H1092   1.081       .  S
C1088      C1089   1.401       .  A
C1088      H1093   1.083       .  S
C1089      C1090   1.402       .  A
C1090      H1094   1.083       .  S
C1091      C1096   1.411       .  A
C1091      C1100   1.409       .  A
C1096      C1097   1.398       .  A
C1096      H1101   1.081       .  S
C1097      C1098   1.402       .  A
C1097      H1102   1.083       .  S
C1098      C1099   1.403   1_556  A
C1099      C1100   1.397   1_554  A
C1099      H1103   1.083       .  S
C1100      H1104   1.081   1_556  S
C1105      C1110   1.392       .  A
C1105      H1115   1.083       .  S
C1106      C1107   1.406       .  A
C1106      C1111   1.475       .  S
C1107      C1108   1.399       .  A
C1107      H1112   1.083       .  S
C1108      C1109   1.402       .  A
C1108      H1113   1.083       .  S
C1110      H1114   1.083       .  S
C1111      C1120   1.402       .  A
C1116      C1117   1.397       .  A
C1116      H1121   1.083       .  S
C1117      H1122   1.083       .  S
C1118      C1119   1.407       .  A
C1119      C1120   1.396       .  A
C1119      H1123   1.083       .  S
C1120      H1124   1.083       .  S
C1125      C1126   1.405       .  A
C1125      C1130   1.395       .  A
C1125      H1135   1.083       .  S
C1126      C1127   1.408       .  A
C1126      C1131   1.484       .  S
C1127      C1128   1.401       .  A
C1127      H1132   1.083       .  S
C1128      C1129   1.401       .  A
C1128      H1133   1.083   1_565  S
C1129      C1130   1.400       .  A
C1130      H1134   1.083   1_554  S
C1131      C1136   1.407       .  A
C1131      C1140   1.404       .  A
C1136      C1137   1.400       .  A
C1136      H1141   1.083       .  S
C1137      C1138   1.405       .  A
C1137      H1142   1.083       .  S
C1138      C1139   1.407       .  A
C1139      C1140   1.397       .  A
C1139      H1143   1.083       .  S
C1140      H1144   1.083       .  S
C1145      C1146   1.409       .  A
C1145      C1150   1.396       .  A
C1145      H1155   1.081   1_554  S
C1146      C1147   1.411       .  A
C1146      C1151   1.497       .  S
C1147      C1148   1.399       .  A
C1147      H1152   1.081       .  S
C1148      C1149   1.403       .  A
C1148      H1153   1.082       .  S
C1149      C1150   1.402       .  A
C1150      H1154   1.083   1_554  S
C1151      C1156   1.411       .  A
C1151      C1160   1.410       .  A
C1156      C1157   1.397       .  A
C1156      H1161   1.081       .  S
C1157      C1158   1.401       .  A
C1157      H1162   1.083       .  S
C1158      C1159   1.402       .  A
C1159      C1160   1.399       .  A
C1159      H1163   1.083       .  S
C1160      H1164   1.081       .  S
C1165      C1170   1.397       .  A
C1165      H1175   1.083       .  S
C1166      C1167   1.400       .  A
C1166      C1171   1.471       .  S
C1167      C1168   1.391       .  A
C1167      H1172   1.084       .  S
C1168      C1169   1.406       .  A
C1168      H1173   1.083       .  S
C1170      H1174   1.083       .  S
C1171      C1180   1.406       .  A
C1176      C1177   1.392       .  A
C1176      H1181   1.083       .  S
C1177      H1182   1.083       .  S
C1178      C1179   1.399       .  A
C1179      C1180   1.396       .  A
C1179      H1183   1.083       .  S
C1180      H1184   1.083       .  S
