geometry optimzed in LAMMPS
_audit_creation_date              2020-11-30 
_audit_creation_method            'lammps2cif' 
_symmetry_space_group_name_H-M    'P1' 
_symmetry_Int_Tables_number       1 
_symmetry_cell_setting            triclinic 
loop_ 
_symmetry_equiv_pos_as_xyz 
  x,y,z 
_cell_length_a                    29.70056257 
_cell_length_b                    29.752032434093792 
_cell_length_c                    29.68255200577013 
_cell_angle_alpha                 89.75517812317067 
_cell_angle_beta                  89.92732400428145 
_cell_angle_gamma                 89.82600716795181 
loop_ 
_atom_site_label 
_atom_site_type_symbol 
_atom_site_fract_x 
_atom_site_fract_y 
_atom_site_fract_z 
_atom_site_charge 
O1          O  0.08663055  0.98828801  0.51583149    -0.88000
C2          C  0.98743309  0.89518940  0.49492946     0.88000
Mg3        Mg  0.08021906  0.04273962  0.56331194     1.58100
O4          O  0.99745539  0.97697309  0.40875743    -0.87700
O5          O  0.09944125  0.97804201  0.44395018    -0.75100
C6          C  0.87774552  0.13304540  0.52579555     0.93100
O7          O  0.01611322  0.94986004  0.58804380    -0.74900
O8          O  0.90645408  0.12698709  0.55710698    -0.82400
Mg9        Mg  0.07060206  0.92197125  0.54062487     1.58000
C10         C  0.87795408  0.03859470  0.36215717     0.93000
O11         O  0.12519802  0.88507776  0.49970621    -0.80600
H12         H  0.03371202  0.00942935  0.36210539    -0.06000
C13         C  0.90047900  0.00207867  0.50437721     0.87900
O14         O  0.05863532  0.09161394  0.50721461    -0.75200
O15         O  0.02285453  0.91497387  0.48608907    -0.87900
O16         O  0.89699201  0.00009592  0.36454385    -0.80700
C17         C  0.96547923  0.86926011  0.36379656     0.93100
C18         C  0.12900857  0.86438139  0.46231020     0.93000
Mg19       Mg  0.93723970  0.07683506  0.44638759     1.58000
O20         O  0.88103618  0.11169881  0.48866235    -0.80700
O21         O  0.99194831  0.04980684  0.39817092    -0.74900
O22         O  0.00395348  0.87213658  0.38286954    -0.80700
O23         O  0.12133728  0.92909291  0.59843005    -0.82400
O24         O  0.00471814  0.12654909  0.60203481    -0.80800
C25         C  0.00846003  0.01157667  0.38833889     0.87400
O26         O  0.98574519  0.08429169  0.49961049    -0.87900
O27         O  0.92266100  0.00992772  0.47003350    -0.88000
O28         O  0.90982617  0.02030844  0.54182901    -0.75100
Mg29       Mg  0.04849337  0.92577533  0.41848193     1.58000
O30         O  0.93490364  0.89851969  0.37107870    -0.82400
H31         H  0.13701306  0.01901239  0.48338189    -0.06200
O32         O  0.01148217  0.02239198  0.57604134    -0.87700
H33         H  0.97505166  0.99138634  0.62349048    -0.06000
H34         H  0.02105341  0.12947357  0.46431438    -0.06200
C35         C  0.00019375  0.98841235  0.59724927     0.87400
C36         C  0.10908603  0.99578182  0.48156303     0.88000
C37         C  0.02138472  0.10324957  0.48970020     0.88000
H38         H  0.87295431  0.97837196  0.50272012    -0.06200
O39         O  0.95041442  0.90640308  0.47669432    -0.75200
Mg40       Mg  0.96050646  0.07314172  0.56696065     1.58000
H41         H  0.98774223  0.86844713  0.51977921    -0.06200
C42         C  0.12836817  0.96101618  0.62606142     0.93000
O43         O  0.07419108  0.10101106  0.61276042    -0.82400
C44         C  0.04333671  0.12978754  0.62058154     0.93100
O45         O  0.10246862  0.87179722  0.42935069    -0.82400
Mg46       Mg  0.92870306  0.95624827  0.42138108     1.58200
O47         O  0.11051661  0.99975477  0.62089754    -0.80700
O48         O  0.88624238  0.06955038  0.39035337    -0.82400
O49         O  0.99293735  0.51672476  0.08333055    -0.88000
C50         C  0.89985720  0.49053319  0.98471241     0.88000
Mg51       Mg  0.04377111  0.56749109  0.07544536     1.58100
O52         O  0.98688361  0.40993980  0.99129615    -0.87700
O53         O  0.98957353  0.44383197  0.09361346    -0.75100
C54         C  0.13268234  0.53727183  0.87116304     0.93100
O55         O  0.94810775  0.58675721  0.01304760    -0.74900
O56         O  0.12348470  0.56740142  0.90005981    -0.82400
Mg57       Mg  0.92445297  0.53733387  0.06767990     1.58000
C58         C  0.04730553  0.36524620  0.86956536     0.93000
O59         O  0.89080324  0.49369812  0.12302570    -0.80600
H60         H  0.02150283  0.36298340  0.02516104    -0.06000
C61         C  0.00276121  0.50671605  0.89479646     0.87900
O62         O  0.09584372  0.51481659  0.05143609    -0.75200
O63         O  0.92137436  0.48324462  0.01958792    -0.87900
O64         O  0.00895891  0.36748080  0.88907664    -0.80700
C65         C  0.88035851  0.35909744  0.96525602     0.93100
C66         C  0.87417873  0.45435441  0.12714206     0.93000
Mg67       Mg  0.08253938  0.45195698  0.92879374     1.58000
O68         O  0.11546184  0.49791066  0.87350421    -0.80700
O69         O  0.05959186  0.40115124  0.98299436    -0.74900
O70         O  0.88266037  0.38200165  0.00137604    -0.80700
O71         O  0.92743032  0.59599858  0.11741127    -0.82400
O72         O  0.12480459  0.60848052  0.99931457    -0.80800
C73         C  0.02222596  0.38998126  0.00061187     0.87400
O74         O  0.08692512  0.50513069  0.97877161    -0.87900
O75         O  0.01358337  0.47197552  0.91510538    -0.88000
O76         O  0.01851909  0.54489258  0.90553724    -0.75100
Mg77       Mg  0.93693950  0.41672254  0.04412253     1.58000
O78         O  0.90885365  0.36477403  0.93345934    -0.82400
H79         H  0.02832456  0.48524160  0.13131236    -0.06200
O80         O  0.02096477  0.57802280  0.00738249    -0.87700
H81         H  0.98750218  0.62450799  0.97181944    -0.06000
H82         H  0.13487670  0.47311332  0.01380674    -0.06200
C83         C  0.98598862  0.59788336  0.99674336     0.87400
C84         C  0.00416284  0.48245132  0.10422039     0.88000
C85         C  0.10720472  0.49690873  0.01424702     0.88000
H86         H  0.97839601  0.50472498  0.86780935    -0.06200
O87         O  0.91050324  0.47231953  0.94754574    -0.75200
Mg88       Mg  0.07114914  0.57224020  0.95549232     1.58000
H89         H  0.87177725  0.51380321  0.98564213    -0.06200
C90         C  0.95798973  0.62505669  0.12481304     0.93000
O91         O  0.09682577  0.62231660  0.06738630    -0.82400
C92         C  0.12537871  0.63023947  0.03634622     0.93100
O93         O  0.88437605  0.42285397  0.10002270    -0.82400
Mg94       Mg  0.96267423  0.42020103  0.92349229     1.58200
O95         O  0.99728647  0.62075525  0.10785905    -0.80700
O96         O  0.07759809  0.39474192  0.87680908    -0.82400
O97         O  0.52450002  0.41776324  0.50989867    -0.88000
C98         C  0.50681370  0.51622853  0.60423245     0.88000
Mg99       Mg  0.57297154  0.42236474  0.45584548     1.58100
O100        O  0.42013051  0.50976474  0.52367191    -0.87700
O101        O  0.45231320  0.40735158  0.52076548    -0.75100
C102        C  0.53771783  0.62315088  0.36447745     0.93100
O103        O  0.59770192  0.48550112  0.54953871    -0.74900
O104        O  0.56995374  0.59582299  0.37189651    -0.82400
Mg105      Mg  0.54860089  0.43202707  0.57657881     1.58000
C106        C  0.37456195  0.62777628  0.46276370     0.93000
O107        O  0.50517571  0.37731563  0.61040176    -0.80600
H108        H  0.37144770  0.47515773  0.49307015    -0.06000
C109        C  0.51755389  0.60388786  0.49611984     0.87900
O110        O  0.51789047  0.44522771  0.40641174    -0.75200
O111        O  0.49613072  0.48146123  0.58441315    -0.87900
O112        O  0.38004151  0.61085172  0.50186652    -0.80700
C113        C  0.37683094  0.54293546  0.63170996     0.93100
C114        C  0.46854151  0.37468916  0.63275745     0.93000
Mg115      Mg  0.45729876  0.56700080  0.42244833     1.58000
O116        O  0.49972171  0.62000806  0.38437403    -0.80700
O117        O  0.40837893  0.51441335  0.45099514    -0.74900
O118        O  0.39382586  0.50366097  0.62745905    -0.80700
O119        O  0.60494361  0.38024482  0.56992892    -0.82400
O120        O  0.61249973  0.49628902  0.37196404    -0.80800
C121        C  0.39854250  0.49921048  0.48979646     0.87400
O122        O  0.51043671  0.51781695  0.41513243    -0.87900
O123        O  0.48284162  0.58230972  0.48900756    -0.88000
O124        O  0.55484921  0.59323627  0.47807588    -0.75100
Mg125      Mg  0.42813750  0.45828753  0.57400976     1.58000
O126        O  0.38585407  0.57383286  0.60325743    -0.82400
H127        H  0.49025884  0.36941285  0.47839360    -0.06200
O128        O  0.58690399  0.49057949  0.47662095    -0.87700
H129        H  0.63449575  0.52580439  0.50828479    -0.06000
H130        H  0.47561725  0.48384592  0.36887381    -0.06200
C131        C  0.60775791  0.50128761  0.51096336     0.87400
C132        C  0.48946945  0.39684572  0.50224580     0.88000
C133        C  0.50058452  0.48274986  0.39537981     0.88000
H134        H  0.51640093  0.63187702  0.51929962    -0.06200
O135        O  0.49058363  0.55416467  0.59313380    -0.75200
Mg136      Mg  0.57864537  0.54158374  0.42565896     1.58000
H137        H  0.53182068  0.51449909  0.63067263    -0.06200
C138        C  0.63334695  0.37274930  0.53866673     0.93000
O139        O  0.62295178  0.42688505  0.39723466    -0.82400
C140        C  0.63047353  0.45745753  0.36799529     0.93100
O141        O  0.43715359  0.40361202  0.62777104    -0.82400
Mg142      Mg  0.43557525  0.57782946  0.54430943     1.58200
O143        O  0.62948639  0.39067327  0.49969004    -0.80700
O144        O  0.40077903  0.61899652  0.42991544    -0.82400
O145        O  0.55862950  0.97569370  0.05199264    -0.88000
C146        C  0.42491952  0.98731496  0.08762676     0.88000
Mg147      Mg  0.59894263  0.03184294  0.03005443     1.58100
O148        O  0.44229471  0.93736539  0.98163016    -0.87700
O149        O  0.53598408  0.91047134  0.02666320    -0.75100
C150        C  0.47206695  0.13544895  0.87654196     0.93100
O151        O  0.50895583  0.05987267  0.09857010    -0.74900
O152        O  0.50211411  0.14348266  0.90598388    -0.82400
Mg153      Mg  0.52043929  0.98486478  0.11349683     1.58000
C154        C  0.36471464  0.98135703  0.87136914     0.93000
O155        O  0.53123736  0.91160680  0.13868465    -0.80600
H156        H  0.46877521  0.88835990  0.94397156    -0.06000
C157        C  0.41471606  0.07154918  0.98005198     0.87900
O158        O  0.58694693  0.01429689  0.95561711    -0.75200
O159        O  0.45985032  0.96706924  0.07750000    -0.87900
O160        O  0.35897401  0.96398346  0.91042446    -0.80700
C161        C  0.34844334  0.88787321  0.03832818     0.93100
C162        C  0.51021945  0.87431439  0.13668884     0.93000
Mg163      Mg  0.46113082  0.02556014  0.90112548     1.58000
O164        O  0.45097499  0.09821358  0.87574141    -0.80700
O165        O  0.47211567  0.95044215  0.91550937    -0.74900
O166        O  0.38619833  0.88616098  0.05881529    -0.80700
O167        O  0.58351277  0.00483733  0.15193760    -0.82400
O168        O  0.59645609  0.12466435  0.95603646    -0.80800
C169        C  0.46073368  0.92375630  0.94694893     0.87400
O170        O  0.52176289  0.04314647  0.93706918    -0.87900
O171        O  0.42245970  0.03475790  0.96236534    -0.88000
O172        O  0.44568062  0.10014654  0.98693824    -0.75100
Mg173      Mg  0.46055387  0.90355647  0.04304900     1.58000
O174        O  0.34074445  0.91697683  0.00753268    -0.82400
H175        H  0.60080385  0.93170605  0.02344061    -0.06200
O176        O  0.53919259  0.07339164  0.03260526    -0.87700
H177        H  0.51169594  0.12198520  0.07010167    -0.06000
H178        H  0.56060083  0.01073118  0.89262870    -0.06200
C179        C  0.52025674  0.08669635  0.06717884     0.87400
C180        C  0.56674101  0.93907093  0.03416949     0.88000
C181        C  0.55648796  0.02268598  0.92679781     0.88000
H182        H  0.38077772  0.07919920  0.99097749    -0.06200
O183        O  0.39438548  0.99538757  0.05873039    -0.75200
Mg184      Mg  0.52139322  0.10714036  0.97084589     1.58000
H185        H  0.42063239  0.99928458  0.12175725    -0.06200
C186        C  0.61712076  0.02964737  0.14247793     0.93000
O187        O  0.64105786  0.09175001  0.00670886    -0.82400
C188        C  0.63438212  0.12125337  0.97614175     0.93100
O189        O  0.48025979  0.86683603  0.10708274    -0.82400
Mg190      Mg  0.38215431  0.97800482  0.98408702     1.58200
O191        O  0.62244113  0.04563476  0.10287411    -0.80700
O192        O  0.39806156  0.00675078  0.86269971    -0.82400
C193        C  0.56306384  0.73523801  0.30777849    -0.05100
C194        C  0.54212420  0.72936767  0.26545432     0.09000
C195        C  0.52419628  0.68691896  0.25426041    -0.02500
C196        C  0.52412335  0.65176691  0.28630146    -0.00800
C197        C  0.54299174  0.65840858  0.32940704    -0.04400
C198        C  0.56411963  0.69954042  0.33938596     0.02600
C199        C  0.53522566  0.76852855  0.23404229     0.09500
C200        C  0.50476392  0.67987273  0.21002285     0.35400
C201        C  0.58607637  0.70528207  0.38254910     0.38800
C202        C  0.57111598  0.78588495  0.20801728    -0.04800
C203        C  0.56343078  0.82148083  0.17716189     0.02400
C204        C  0.51949275  0.83884143  0.17099520    -0.04400
C205        C  0.48375797  0.82177707  0.19749489    -0.00600
C206        C  0.49175001  0.78733805  0.22930042    -0.03100
C207        C  0.61567905  0.76632003  0.21219196     0.36100
C208        C  0.43871013  0.84025441  0.19271197     0.39700
C209        C  0.60045643  0.83925343  0.15071530     0.38900
C210        C  0.45510882  0.77109991  0.25733524     0.35800
C211        C  0.58193351  0.77850825  0.31944131     0.36500
C212        C  0.50412382  0.60880512  0.27508465     0.39700
N213        N  0.62995656  0.85364851  0.12968211    -0.38400
N214        N  0.65124475  0.75066730  0.21550726    -0.39900
N215        N  0.40277039  0.85490808  0.18886456    -0.37700
N216        N  0.42601237  0.75802317  0.27975468    -0.40100
N217        N  0.48921841  0.67443710  0.17473684    -0.39800
N218        N  0.48821656  0.57454226  0.26606973    -0.37500
N219        N  0.60385456  0.70953643  0.41693010    -0.38500
N220        N  0.59699519  0.81307548  0.32871586    -0.40200
C221        C  0.45489070  0.18970615  0.76075953    -0.05100
C222        C  0.45363981  0.23571420  0.77187061     0.09000
C223        C  0.45473482  0.24862778  0.81755097    -0.02500
C224        C  0.45956081  0.21593123  0.85185628    -0.00800
C225        C  0.46263030  0.16977761  0.84082545    -0.04400
C226        C  0.45917202  0.15680869  0.79497954     0.02600
C227        C  0.45666014  0.27072766  0.73545036     0.09500
C228        C  0.45186633  0.29587019  0.82908998     0.35400
C229        C  0.46279086  0.10984151  0.78240760     0.38800
C230        C  0.41821689  0.28464945  0.71119868    -0.04800
C231        C  0.42187887  0.31774628  0.67694308     0.02400
C232        C  0.46406082  0.33802034  0.66737360    -0.04400
C233        C  0.50245107  0.32394038  0.69237402    -0.00600
C234        C  0.49877815  0.28997312  0.72539880    -0.03100
C235        C  0.37487262  0.26487763  0.72171991     0.36100
C236        C  0.54580346  0.34550674  0.68592924     0.39700
C237        C  0.38231383  0.32985305  0.65095557     0.38900
C238        C  0.53863032  0.27461507  0.74931265     0.35800
C239        C  0.45365853  0.17641500  0.71379780     0.36500
C240        C  0.46138779  0.22997513  0.89855684     0.39700
N241        N  0.35066539  0.33931402  0.63022727    -0.38400
N242        N  0.34032774  0.24904986  0.73022390    -0.39900
N243        N  0.58040318  0.36264574  0.68098486    -0.37700
N244        N  0.57032561  0.26220385  0.76834714    -0.40100
N245        N  0.44953337  0.33357886  0.83822515    -0.39800
N246        N  0.46302013  0.24113132  0.93582159    -0.37500
N247        N  0.46568464  0.07243205  0.77222138    -0.38500
N248        N  0.45267428  0.16596738  0.67630031    -0.40200
C249        C  0.79143710  0.27752759  0.91797059    -0.05100
C250        C  0.77694535  0.25519680  0.95746492     0.09000
C251        C  0.79615936  0.26690164  0.99914227    -0.02500
C252        C  0.82998625  0.30009065  0.00150008    -0.00800
C253        C  0.84441095  0.32343933  0.96202334    -0.04400
C254        C  0.82466501  0.31165070  0.92016497     0.02600
C255        C  0.74038138  0.22015408  0.95610767     0.09500
C256        C  0.78064590  0.24473111  0.03998185     0.35400
C257        C  0.83729413  0.33539200  0.87933095     0.38800
C258        C  0.75121094  0.17399456  0.95944651    -0.04800
C259        C  0.71680344  0.14146528  0.96448813     0.02400
C260        C  0.67088872  0.15467720  0.96570146    -0.04400
C261        C  0.66020472  0.20102132  0.96067534    -0.00600
C262        C  0.69475009  0.23340478  0.95629834    -0.03100
C263        C  0.79807819  0.16017152  0.95903386     0.36100
C264        C  0.61376020  0.21616522  0.96293353     0.39700
C265        C  0.72893279  0.09437105  0.96860870     0.38900
C266        C  0.68347282  0.28086189  0.95444311     0.35800
C267        C  0.77189971  0.26537202  0.87499819     0.36500
C268        C  0.85064013  0.30871089  0.04491862     0.39700
N269        N  0.73871167  0.05683116  0.97209324    -0.38400
N270        N  0.83551215  0.14926245  0.95883527    -0.39900
N271        N  0.57674923  0.22832172  0.96475301    -0.37700
N272        N  0.67460878  0.31875044  0.95323622    -0.40100
N273        N  0.76809823  0.22698812  0.07240046    -0.39800
N274        N  0.86678837  0.31537975  0.07971718    -0.37500
N275        N  0.84725795  0.35434758  0.84669511    -0.38500
N276        N  0.75629981  0.25563321  0.84070501    -0.40200
C277        C  0.19557811  0.73528724  0.01069568    -0.05100
C278        C  0.21555814  0.74437235  0.05276900     0.09000
C279        C  0.20655868  0.71549484  0.08960595    -0.02500
C280        C  0.17823880  0.67758435  0.08426171    -0.00800
C281        C  0.15823434  0.66822636  0.04193089    -0.04400
C282        C  0.16728880  0.69761443  0.00518353     0.02600
C283        C  0.24934857  0.78194607  0.05644400     0.09500
C284        C  0.22679544  0.72473948  0.13301999     0.35400
C285        C  0.14678074  0.69007023  0.96150980     0.38800
C286        C  0.23547714  0.82746482  0.05582542    -0.04800
C287        C  0.26760345  0.86237387  0.05123459     0.02400
C288        C  0.31413672  0.85215637  0.04830266    -0.04400
C289        C  0.32793412  0.80649562  0.05176792    -0.00600
C290        C  0.29574944  0.77180479  0.05547853    -0.03100
C291        C  0.18794996  0.83823103  0.05918569     0.36100
C292        C  0.37523411  0.79445089  0.04858854     0.39700
C293        C  0.25263852  0.90878104  0.04957689     0.38900
C294        C  0.31033944  0.72519592  0.05617761     0.35800
C295        C  0.20450945  0.76481544  0.97267761     0.36500
C296        C  0.17125312  0.64733798  0.12205871     0.39700
N297        N  0.24063893  0.94580814  0.04816276    -0.38400
N298        N  0.15001460  0.84680215  0.06195958    -0.39900
N299        N  0.41290951  0.78471377  0.04607857    -0.37700
N300        N  0.32178106  0.68798297  0.05677725    -0.40100
N301        N  0.24304058  0.73208690  0.16762595    -0.39800
N302        N  0.16590262  0.62316733  0.15223927    -0.37500
N303        N  0.13066916  0.68402593  0.92658080    -0.38500
N304        N  0.21152118  0.78859682  0.94254010    -0.40200
C305        C  0.30762715  0.52662628  0.74024945    -0.05100
C306        C  0.27263801  0.55833089  0.73465981     0.09000
C307        C  0.27420744  0.58825028  0.69770727    -0.02500
C308        C  0.30922557  0.58507753  0.66530096    -0.00800
C309        C  0.34341717  0.55148501  0.66938188    -0.04400
C310        C  0.34290352  0.52344443  0.70835937     0.02600
C311        C  0.23405110  0.55923745  0.76779497     0.09500
C312        C  0.23917420  0.62201020  0.69271030     0.35400
C313        C  0.37881289  0.49122514  0.71651125     0.38800
C314        C  0.24067814  0.57569120  0.81182785    -0.04800
C315        C  0.20734908  0.56940542  0.84533994     0.02400
C316        C  0.16616667  0.54776666  0.83477598    -0.04400
C317        C  0.15809803  0.53496219  0.78966951    -0.00600
C318        C  0.19205281  0.54009395  0.75653354    -0.03100
C319        C  0.28235865  0.59847824  0.82276239     0.36100
C320        C  0.11433306  0.51764945  0.77704047     0.39700
C321        C  0.21669765  0.58334506  0.89118626     0.38900
C322        C  0.18404467  0.52495286  0.71089621     0.35800
C323        C  0.30676149  0.49637191  0.77875285     0.36500
C324        C  0.30868594  0.61597532  0.62731930     0.39700
N325        N  0.22431044  0.59444369  0.92771622    -0.38400
N326        N  0.31557061  0.61676820  0.83136386    -0.39900
N327        N  0.07924403  0.50416955  0.76703389    -0.37700
N328        N  0.17760924  0.51311394  0.67438777    -0.40100
N329        N  0.21114328  0.64881806  0.68859412    -0.39800
N330        N  0.30809758  0.64090797  0.59726665    -0.37500
N331        N  0.40726067  0.46537637  0.72319580    -0.38500
N332        N  0.30595039  0.47244937  0.80958498    -0.40200
C333        C  0.73099858  0.41154761  0.29934036    -0.05100
C334        C  0.73174081  0.44124938  0.26225932     0.09000
C335        C  0.69675877  0.47301438  0.25729101    -0.02500
C336        C  0.66246126  0.47669021  0.29024356    -0.00800
C337        C  0.66302185  0.44897485  0.32953440    -0.04400
C338        C  0.69719083  0.41529926  0.33285984     0.02600
C339        C  0.77012076  0.44024686  0.22898498     0.09500
C340        C  0.69653339  0.50259602  0.21826315     0.35400
C341        C  0.69914873  0.38501514  0.37126930     0.38800
C342        C  0.76446655  0.42070863  0.18613024    -0.04800
C343        C  0.79877718  0.42420938  0.15318886     0.02400
C344        C  0.83992098  0.44609520  0.16331879    -0.04400
C345        C  0.84650787  0.46307194  0.20728334    -0.00600
C346        C  0.81160999  0.46070019  0.23967139    -0.03100
C347        C  0.72291047  0.39744497  0.17582040     0.36100
C348        C  0.88954649  0.48241198  0.21951550     0.39700
C349        C  0.79031678  0.40759559  0.10809797     0.38900
C350        C  0.81807590  0.48007264  0.28392841     0.35800
C351        C  0.76563633  0.37723613  0.30312847     0.36500
C352        C  0.62654696  0.50908851  0.28287375     0.39700
N353        N  0.78321942  0.39457178  0.07211826    -0.38400
N354        N  0.68980803  0.37873938  0.16771341    -0.39900
N355        N  0.92396844  0.49770444  0.22920368    -0.37700
N356        N  0.82319220  0.49545316  0.31928958    -0.40100
N357        N  0.69638320  0.52600883  0.18702622    -0.39800
N358        N  0.59811480  0.53509142  0.27675217    -0.37500
N359        N  0.70091881  0.36063963  0.40172402    -0.38500
N360        N  0.79327741  0.34988031  0.30601721    -0.40200
C361        C  0.69553993  0.26298149  0.56378316    -0.05100
C362        C  0.73965623  0.27328403  0.54919059     0.09000
C363        C  0.74983871  0.31795845  0.53631727    -0.02500
C364        C  0.71555132  0.35101520  0.53454734    -0.00800
C365        C  0.67083888  0.34005424  0.54662774    -0.04400
C366        C  0.66142076  0.29625673  0.56295363     0.02600
C367        C  0.77434545  0.23650599  0.54371486     0.09500
C368        C  0.79563469  0.32967633  0.52410806     0.35400
C369        C  0.61599007  0.28450541  0.57659661     0.38800
C370        C  0.78729248  0.22274100  0.50012301    -0.04800
C371        C  0.82108803  0.18969961  0.49415823     0.02400
C372        C  0.84048539  0.16727833  0.53196431    -0.04400
C373        C  0.82547176  0.17976827  0.57574553    -0.00600
C374        C  0.79396542  0.21516230  0.58147081    -0.03100
C375        C  0.76567034  0.24289318  0.46105791     0.36100
C376        C  0.84123555  0.15564421  0.61530219     0.39700
C377        C  0.83688698  0.18083090  0.44875737     0.38900
C378        C  0.78220758  0.23017624  0.62642538     0.35800
C379        C  0.68476539  0.21757623  0.57804651     0.36500
C380        C  0.72637609  0.39649158  0.52054436     0.39700
N381        N  0.84935448  0.17428172  0.41240211    -0.38400
N382        N  0.74832678  0.25903321  0.43004335    -0.39900
N383        N  0.85351736  0.13630047  0.64691619    -0.37700
N384        N  0.77294981  0.24220859  0.66229730    -0.40100
N385        N  0.83217925  0.33894886  0.51430179    -0.39800
N386        N  0.73495150  0.43281156  0.50944582    -0.37500
N387        N  0.57977775  0.27516623  0.58754971    -0.38500
N388        N  0.67624632  0.18140708  0.58966986    -0.40200
C389        C  0.20153595  0.76228742  0.49122325    -0.05100
C390        C  0.23100593  0.76043649  0.45402846     0.09000
C391        C  0.22641293  0.79204564  0.41871147    -0.02500
C392        C  0.19333227  0.82625601  0.42120734    -0.00800
C393        C  0.16396944  0.82845234  0.45868598    -0.04400
C394        C  0.16764033  0.79552014  0.49318122     0.02600
C395        C  0.26852611  0.72664322  0.45356013     0.09500
C396        C  0.25621124  0.78955616  0.38007467     0.35400
C397        C  0.13550112  0.79465370  0.53006578     0.38800
C398        C  0.26178984  0.68313927  0.43592249    -0.04800
C399        C  0.29691072  0.65094815  0.43740341     0.02400
C400        C  0.33856414  0.66196048  0.45720939    -0.04400
C401        C  0.34512067  0.70540313  0.47507446    -0.00600
C402        C  0.31031185  0.73765077  0.47308298    -0.03100
C403        C  0.21820092  0.67116420  0.41774173     0.36100
C404        C  0.38764963  0.71673456  0.49615427     0.39700
C405        C  0.28979830  0.60609356  0.41999112     0.38900
C406        C  0.31691122  0.78187472  0.49236336     0.35800
C407        C  0.20663790  0.73022438  0.52787514     0.36500
C408        C  0.19074317  0.86014729  0.38606561     0.39700
N409        N  0.28418415  0.57023299  0.40617537    -0.38400
N410        N  0.18324598  0.66159596  0.40359085    -0.39900
N411        N  0.42153160  0.72566634  0.51306878    -0.37700
N412        N  0.32194281  0.81712240  0.50787401    -0.40100
N413        N  0.27995099  0.78736662  0.34921132    -0.39800
N414        N  0.18880430  0.88732521  0.35811946    -0.37500
N415        N  0.10970061  0.79373491  0.55930857    -0.38500
N416        N  0.21097596  0.70476491  0.55714981    -0.40200
C417        C  0.28129100  0.00413240  0.77567721    -0.05100
C418        C  0.26240558  0.96126407  0.76884061     0.09000
C419        C  0.27787389  0.92451679  0.79487022    -0.02500
C420        C  0.31156903  0.93070440  0.82800104    -0.00800
C421        C  0.33020922  0.97383144  0.83537655    -0.04400
C422        C  0.31470185  0.01054918  0.80883888     0.02600
C423        C  0.22658410  0.95527595  0.73357236     0.09500
C424        C  0.25926244  0.88022585  0.78722379     0.35400
C425        C  0.33174177  0.05556109  0.81655380     0.38800
C426        C  0.23854477  0.94223878  0.68948436    -0.04800
C427        C  0.20579489  0.94142398  0.65494500     0.02400
C428        C  0.16080237  0.95453719  0.66400067    -0.04400
C429        C  0.14862161  0.96627563  0.70852601    -0.00600
C430        C  0.18130030  0.96634253  0.74317032    -0.03100
C431        C  0.28518303  0.93185151  0.67925219     0.36100
C432        C  0.10243354  0.97860769  0.71865506     0.39700
C433        C  0.21921136  0.92982627  0.60942189     0.38900
C434        C  0.16868462  0.97904554  0.78858193     0.35800
C435        C  0.26629502  0.04176686  0.74820122     0.36500
C436        C  0.32791698  0.89234519  0.85354724     0.39700
N437        N  0.22993805  0.92062319  0.57310469    -0.38400
N438        N  0.32248478  0.92385805  0.67120616    -0.39900
N439        N  0.06560495  0.98861978  0.72665278    -0.37700
N440        N  0.15870925  0.98919881  0.82484816    -0.40100
N441        N  0.24451168  0.84483937  0.78099812    -0.39800
N442        N  0.34106620  0.86177420  0.87393180    -0.37500
N443        N  0.34521419  0.09149416  0.82262752    -0.38500
N444        N  0.25430804  0.07162944  0.72612137    -0.40200
C445        C  0.81160451  0.03435456  0.25198926    -0.05100
C446        C  0.76892900  0.04986329  0.26624799     0.09000
C447        C  0.76347078  0.06571902  0.31060057    -0.02500
C448        C  0.79945690  0.06317018  0.34149828    -0.00800
C449        C  0.84199089  0.04618474  0.32781801    -0.04400
C450        C  0.84821353  0.03323842  0.28243408     0.02600
C451        C  0.72873897  0.04628568  0.23582287     0.09500
C452        C  0.72020213  0.08352908  0.32476426     0.35400
C453        C  0.89241842  0.01947854  0.26685219     0.38800
C454        C  0.69925828  0.00953522  0.24046448    -0.04800
C455        C  0.66176428  0.00503048  0.21160751     0.02400
C456        C  0.65308334  0.03762515  0.17737306    -0.04400
C457        C  0.68192020  0.07568032  0.17442302    -0.00600
C458        C  0.71970891  0.07955755  0.20314288    -0.03100
C459        C  0.70829335  0.97557762  0.27460063     0.36100
C460        C  0.67270261  0.11156927  0.14243915     0.39700
C461        C  0.63348498  0.96560744  0.21673456     0.38900
C462        C  0.74978197  0.11767596  0.19887284     0.35800
C463        C  0.81741517  0.01844183  0.20624612     0.36500
C464        C  0.79146220  0.07521858  0.38817942     0.39700
N465        N  0.61106997  0.93413596  0.22121393    -0.38400
N466        N  0.71558709  0.94859620  0.30184880    -0.39900
N467        N  0.66554108  0.14031197  0.11700975    -0.37700
N468        N  0.77395700  0.14793017  0.19540128    -0.40100
N469        N  0.68571983  0.09783795  0.33600572    -0.39800
N470        N  0.78486521  0.08450947  0.42543713    -0.37500
N471        N  0.92774291  0.00871255  0.25432043    -0.38500
N472        N  0.82187792  0.00569471  0.16972697    -0.40200
C473        C  0.97176331  0.73805027  0.18481284    -0.05100
C474        C  0.94643907  0.73109976  0.22448829     0.09000
C475        C  0.91964847  0.69220925  0.22834231    -0.02500
C476        C  0.92057441  0.65897138  0.19432722    -0.00800
C477        C  0.94933329  0.66380364  0.15627442    -0.04400
C478        C  0.97315220  0.70482555  0.15087982     0.02600
C479        C  0.94822422  0.76487268  0.26218933     0.09500
C480        C  0.89130587  0.68629494  0.26774424     0.35400
C481        C  0.99838860  0.71365503  0.10988133     0.38800
C482        C  0.92377683  0.80540410  0.25913513    -0.04800
C483        C  0.92834726  0.83886385  0.29257244     0.02400
C484        C  0.95708760  0.83194308  0.33039177    -0.04400
C485        C  0.97956837  0.78984353  0.33442511    -0.00600
C486        C  0.97540322  0.75685976  0.30038133    -0.03100
C487        C  0.89392482  0.81269780  0.22110060     0.36100
C488        C  0.00638563  0.77963226  0.37401408     0.39700
C489        C  0.90417371  0.88086086  0.28661150     0.38900
C490        C  0.99948297  0.71452820  0.30438377     0.35800
C491        C  0.99679125  0.77949167  0.17909374     0.36500
C492        C  0.89211879  0.61974342  0.19933955     0.39700
N493        N  0.88440661  0.91405433  0.28152461    -0.38400
N494        N  0.87007927  0.81835885  0.19078500    -0.39900
N495        N  0.02774181  0.77129812  0.40557408    -0.38100
N496        N  0.01850080  0.68065161  0.30751232    -0.40100
N497        N  0.86872037  0.68158182  0.29919807    -0.39800
N498        N  0.86874585  0.58892287  0.20329519    -0.37500
N499        N  0.01841504  0.72081708  0.07716126    -0.38500
N500        N  0.01644780  0.81271950  0.17445264    -0.40200
C501        C  0.03380385  0.25496211  0.80383345    -0.05100
C502        C  0.05744133  0.26444823  0.76362727     0.09000
C503        C  0.08170953  0.30498933  0.76011915    -0.02500
C504        C  0.08095417  0.33664899  0.79566476    -0.00800
C505        C  0.05498132  0.32858796  0.83520883    -0.04400
C506        C  0.03268438  0.28654589  0.83939344     0.02600
C507        C  0.05675452  0.23156715  0.72501140     0.09500
C508        C  0.10702191  0.31438503  0.71931413     0.35400
C509        C  0.00913243  0.27498685  0.88069019     0.38800
C510        C  0.02972129  0.23986120  0.68674182    -0.04800
C511        C  0.02731404  0.20800913  0.65150332     0.02400
C512        C  0.05117561  0.16661602  0.65448711    -0.04400
C513        C  0.07974631  0.15937313  0.69233297    -0.00600
C514        C  0.08256227  0.19173874  0.72702918    -0.03100
C515        C  0.00361221  0.28106850  0.68401265     0.36100
C516        C  0.10536759  0.11800949  0.69703571     0.39700
C517        C  0.00066892  0.21855694  0.61185520     0.38900
C518        C  0.11169666  0.18376197  0.76547026     0.35800
C519        C  0.00993871  0.21268601  0.80830633     0.36500
C520        C  0.10646773  0.37780485  0.79049682     0.39700
N521        N  0.97945081  0.22704415  0.58023980    -0.38400
N522        N  0.98284646  0.31397789  0.68179940    -0.39900
N523        N  0.12612197  0.08524539  0.70098661    -0.37700
N524        N  0.13483894  0.17734148  0.79618023    -0.40100
N525        N  0.12693365  0.32186117  0.68660423    -0.39800
N526        N  0.12749366  0.41021090  0.78613856    -0.37500
N527        N  0.99035170  0.26562917  0.91359357    -0.38500
N528        N  0.99111593  0.17884789  0.81182567    -0.40200
loop_ 
_geom_bond_atom_site_label_1 
_geom_bond_atom_site_label_2 
_geom_bond_distance 
_geom_bond_site_symmetry_2 
_ccdc_geom_bond_type 
O1           Mg3   2.160   1_565  S
O1           Mg9   2.157       .  S
O1           C36   1.235       .  S
C2           O15   1.234   1_655  S
C2           O39   1.269       .  A
C2           H41   1.083       .  S
Mg3          O32   2.163       .  S
Mg3          O47   2.312   1_545  S
Mg3          O43   2.283       .  S
Mg3          O14   2.297       .  S
O4          Mg46   2.167       .  S
O4          Mg29   2.164   1_655  S
O4           C25   1.237   1_665  S
O5           C36   1.270       .  A
O5          Mg29   2.304       .  S
C6            O8   1.274       .  A
C6           O20   1.278       .  A
C6          C372   1.513       .  S
O7           C35   1.270       .  A
O7           Mg9   2.299       .  S
O8          Mg40   2.283       .  S
Mg9          O15   2.165       .  S
Mg9          O23   2.296       .  S
Mg9          O11   2.303       .  S
C10          O48   1.272       .  A
C10          O16   1.278       .  A
C10         C449   1.493       .  S
O11          C18   1.276       .  A
H12          C25   1.082       .  S
C13          O27   1.235       .  S
C13          O28   1.270       .  A
C13          H38   1.083   1_545  S
O14          C37   1.270       .  A
O15         Mg29   2.168       .  S
O16         Mg46   2.327   1_545  S
C17          O30   1.275       .  A
C17          O22   1.279   1_655  A
C17         C484   1.513       .  S
C18          O45   1.275       .  A
C18         C393   1.492       .  S
Mg19         O26   2.152       .  S
Mg19         O27   2.153       .  S
Mg19         O20   2.331       .  S
Mg19         O21   2.309       .  S
Mg19         O48   2.263       .  S
O21          C25   1.272   1_655  A
O22         Mg29   2.333       .  S
O23          C42   1.275       .  A
O24          C44   1.277       .  A
O24         Mg40   2.316   1_455  S
O26         Mg40   2.159       .  S
O26          C37   1.236   1_655  S
O27         Mg46   2.165   1_545  S
O28         Mg40   2.307       .  S
Mg29         O45   2.288       .  S
O30         Mg46   2.287       .  S
H31          C36   1.083   1_545  S
O32         Mg40   2.151   1_455  S
O32          C35   1.236   1_545  S
H33          C35   1.082   1_655  S
H34          C37   1.082       .  S
O39         Mg46   2.299       .  S
C42          O47   1.276       .  A
C42         C428   1.494       .  S
O43          C44   1.274       .  A
C44         C512   1.510       .  S
O49         Mg51   2.151   1_655  S
O49         Mg57   2.173       .  S
O49          C84   1.236   1_655  S
C50          O63   1.235   1_556  S
C50          O87   1.270       .  A
C50          H89   1.083       .  S
Mg51         O80   2.153       .  S
Mg51         O95   2.311   1_455  S
Mg51         O91   2.283       .  S
Mg51         O62   2.313       .  S
O52         Mg94   2.158       .  S
O52         Mg77   2.167   1_556  S
O52          C73   1.235   1_656  S
O53          C84   1.270   1_655  A
O53         Mg77   2.297       .  S
C54          O56   1.272       .  A
C54          O68   1.281       .  A
C54         C316   1.500       .  S
O55          C83   1.269   1_554  A
O55         Mg57   2.295       .  S
O56         Mg88   2.267       .  S
Mg57         O63   2.158       .  S
Mg57         O71   2.293       .  S
Mg57         O59   2.317       .  S
C58          O96   1.278       .  A
C58          O64   1.279       .  A
C58         C505   1.513       .  S
O59          C66   1.277       .  A
H60          C73   1.082       .  S
C61          O75   1.236       .  S
C61          O76   1.272       .  A
C61          H86   1.082   1_455  S
O62          C85   1.272       .  A
O63         Mg77   2.155       .  S
O64         Mg94   2.322   1_455  S
C65          O78   1.278       .  A
C65          O70   1.275   1_556  A
C65         C253   1.511       .  S
C66          O93   1.274       .  A
C66         C344   1.498       .  S
Mg67         O74   2.178       .  S
Mg67         O75   2.170       .  S
Mg67         O68   2.346       .  S
Mg67         O69   2.307       .  S
Mg67         O96   2.308       .  S
O69          C73   1.271   1_556  A
O70         Mg77   2.303       .  S
O71          C90   1.275       .  A
O72          C92   1.278   1_556  A
O72         Mg88   2.328       .  S
O74         Mg88   2.160       .  S
O74          C85   1.237   1_556  S
O75         Mg94   2.175   1_455  S
O76         Mg88   2.308       .  S
Mg77         O93   2.284       .  S
O78         Mg94   2.318       .  S
H79          C84   1.082       .  S
O80         Mg88   2.149   1_554  S
O80          C83   1.234   1_454  S
H81          C83   1.083       .  S
H82          C85   1.083       .  S
O87         Mg94   2.304       .  S
C90          O95   1.277       .  A
C90         C477   1.508       .  S
O91          C92   1.273       .  A
C92         C281   1.505       .  S
O97         Mg99   2.158       .  S
O97        Mg105   2.150       .  S
O97         C132   1.236       .  S
C98         O111   1.235       .  S
C98         O135   1.268       .  A
C98         H137   1.082       .  S
Mg99        O128   2.165       .  S
Mg99        O143   2.321       .  S
Mg99        O139   2.289       .  S
Mg99        O110   2.298       .  S
O100       Mg142   2.169       .  S
O100       Mg125   2.148       .  S
O100        C121   1.235       .  S
O101        C132   1.271       .  A
O101       Mg125   2.307       .  S
C102        O104   1.273       .  A
C102        O116   1.277       .  A
C102        C197   1.483       .  S
O103        C131   1.271       .  A
O103       Mg105   2.303       .  S
O104       Mg136   2.279       .  S
Mg105       O111   2.153       .  S
Mg105       O119   2.280       .  S
Mg105       O107   2.306       .  S
C106        O144   1.274       .  A
C106        O112   1.274       .  A
C106        C400   1.482       .  S
O107        C114   1.276       .  A
H108        C121   1.083       .  S
C109        O123   1.235       .  S
C109        O124   1.270       .  A
C109        H134   1.083       .  S
O110        C133   1.269       .  A
O111       Mg125   2.159       .  S
O112       Mg142   2.293       .  S
C113        O126   1.275       .  A
C113        O118   1.278       .  A
C113        C309   1.516       .  S
C114        O141   1.275       .  A
C114        C232   1.502       .  S
Mg115       O122   2.160       .  S
Mg115       O123   2.168       .  S
Mg115       O116   2.312       .  S
Mg115       O117   2.297       .  S
Mg115       O144   2.291       .  S
O117        C121   1.270       .  A
O118       Mg125   2.320       .  S
O119        C138   1.273       .  A
O120        C140   1.277       .  A
O120       Mg136   2.318       .  S
O122       Mg136   2.171       .  S
O122        C133   1.235       .  S
O123       Mg142   2.163       .  S
O124       Mg136   2.301       .  S
Mg125       O141   2.289       .  S
O126       Mg142   2.291       .  S
H127        C132   1.083       .  S
O128       Mg136   2.152       .  S
O128        C131   1.237       .  S
H129        C131   1.083       .  S
H130        C133   1.082       .  S
O135       Mg142   2.292       .  S
C138        O143   1.277       .  A
C138        C365   1.495       .  S
O139        C140   1.275       .  A
C140        C337   1.516       .  S
O145       Mg147   2.156   1_565  S
O145       Mg153   2.166       .  S
O145        C180   1.236       .  S
C146        O159   1.236       .  S
C146        O183   1.271       .  A
C146        H185   1.083       .  S
Mg147       O176   2.161       .  S
Mg147       O191   2.311       .  S
Mg147       O187   2.285       .  S
Mg147       O158   2.301   1_554  S
O148       Mg190   2.155       .  S
O148       Mg173   2.148   1_556  S
O148        C169   1.235       .  S
O149        C180   1.271       .  A
O149       Mg173   2.302       .  S
C150        O152   1.274       .  A
C150        O164   1.275       .  A
C150        C225   1.495       .  S
O151        C179   1.270       .  A
O151       Mg153   2.298   1_545  S
O152       Mg184   2.277       .  S
Mg153       O159   2.162       .  S
Mg153       O167   2.276   1_565  S
Mg153       O155   2.323       .  S
C154        O192   1.273   1_565  A
C154        O160   1.279       .  A
C154        C421   1.499       .  S
O155        C162   1.276       .  A
H156        C169   1.083       .  S
C157        O171   1.237       .  S
C157        O172   1.272       .  A
C157        H182   1.082       .  S
O158        C181   1.269       .  A
O159       Mg173   2.152       .  S
O160       Mg190   2.333       .  S
C161        O174   1.277       .  A
C161        O166   1.277       .  A
C161        C288   1.503       .  S
C162        O189   1.272       .  A
C162        C204   1.489       .  S
Mg163       O170   2.161       .  S
Mg163       O171   2.167       .  S
Mg163       O164   2.305       .  S
Mg163       O165   2.296   1_545  S
Mg163       O192   2.267       .  S
O165        C169   1.269       .  A
O166       Mg173   2.316       .  S
O167        C186   1.274       .  A
O168        C188   1.279       .  A
O168       Mg184   2.332       .  S
O170       Mg184   2.156       .  S
O170        C181   1.235       .  S
O171       Mg190   2.168   1_545  S
O172       Mg184   2.308       .  S
Mg173       O189   2.265       .  S
O174       Mg190   2.301   1_554  S
H175        C180   1.082       .  S
O176       Mg184   2.152   1_554  S
O176        C179   1.236       .  S
H177        C179   1.083       .  S
H178        C181   1.083       .  S
O183       Mg190   2.307   1_554  S
C186        O191   1.276       .  A
C186        C456   1.509       .  S
O187        C188   1.275   1_554  A
C188        C260   1.505       .  S
C193        C194   1.414       .  A
C193        C198   1.414       .  A
C193        C211   1.449       .  S
C194        C199   1.503       .  S
C194        C195   1.413       .  A
C195        C196   1.411       .  A
C195        C200   1.451       .  S
C196        C197   1.412       .  A
C196        C212   1.451       .  S
C197        C198   1.410       .  A
C198        C201   1.449       .  S
C199        C202   1.413       .  A
C199        C206   1.413       .  A
C200        N217   1.157       .  T
C201        N219   1.157       .  T
C202        C203   1.415       .  A
C202        C207   1.450       .  S
C203        C204   1.414       .  A
C203        C209   1.450       .  S
C204        C205   1.414       .  A
C205        C206   1.410       .  A
C205        C208   1.452       .  S
C206        C210   1.452       .  S
C207        N214   1.157       .  T
C208        N215   1.157       .  T
C209        N213   1.157       .  T
C210        N216   1.157       .  T
C211        N220   1.157       .  T
C212        N218   1.157       .  T
C221        C222   1.410       .  A
C221        C226   1.413       .  A
C221        C239   1.451       .  S
C222        C227   1.501       .  S
C222        C223   1.411       .  A
C223        C224   1.412       .  A
C223        C228   1.450       .  S
C224        C225   1.416       .  A
C224        C240   1.451       .  S
C225        C226   1.420       .  A
C226        C229   1.452       .  S
C227        C230   1.411       .  A
C227        C234   1.408       .  A
C228        N245   1.157       .  T
C229        N247   1.158       .  T
C230        C231   1.417       .  A
C230        C235   1.450       .  S
C231        C232   1.420       .  A
C231        C237   1.450       .  S
C232        C233   1.422       .  A
C233        C234   1.409       .  A
C233        C236   1.452       .  S
C234        C238   1.452       .  S
C235        N242   1.157       .  T
C236        N243   1.157       .  T
C237        N241   1.157       .  T
C238        N244   1.157       .  T
C239        N248   1.157       .  T
C240        N246   1.157       .  T
C249        C250   1.412       .  A
C249        C254   1.420       .  A
C249        C267   1.450       .  S
C250        C255   1.508       .  S
C250        C251   1.409       .  A
C251        C252   1.413   1_556  A
C251        C256   1.453   1_556  S
C252        C253   1.426   1_554  A
C252        C268   1.452       .  S
C253        C254   1.420       .  A
C254        C257   1.450       .  S
C255        C258   1.413       .  A
C255        C262   1.410       .  A
C256        N273   1.157       .  T
C257        N275   1.157       .  T
C258        C259   1.417       .  A
C258        C263   1.450       .  S
C259        C260   1.419       .  A
C259        C265   1.450       .  S
C260        C261   1.421       .  A
C261        C262   1.415       .  A
C261        C264   1.451       .  S
C262        C266   1.451       .  S
C263        N270   1.157       .  T
C264        N271   1.157       .  T
C265        N269   1.157       .  T
C266        N272   1.157       .  T
C267        N276   1.157       .  T
C268        N274   1.158       .  T
C277        C278   1.411       .  A
C277        C282   1.413       .  A
C277        C295   1.452   1_554  S
C278        C283   1.509       .  S
C278        C279   1.413       .  A
C279        C280   1.419       .  A
C279        C284   1.450       .  S
C280        C281   1.420       .  A
C280        C296   1.450       .  S
C281        C282   1.421       .  A
C282        C285   1.452   1_554  S
C283        C286   1.414       .  A
C283        C290   1.410       .  A
C284        N301   1.157       .  T
C285        N303   1.157       .  T
C286        C287   1.419       .  A
C286        C291   1.450       .  S
C287        C288   1.417       .  A
C287        C293   1.450       .  S
C288        C289   1.421       .  A
C289        C290   1.413       .  A
C289        C292   1.452       .  S
C290        C294   1.452       .  S
C291        N298   1.157       .  T
C292        N299   1.157       .  T
C293        N297   1.157       .  T
C294        N300   1.157       .  T
C295        N304   1.157       .  T
C296        N302   1.157       .  T
C305        C306   1.411       .  A
C305        C310   1.414       .  A
C305        C323   1.452       .  S
C306        C311   1.510       .  S
C306        C307   1.410       .  A
C307        C308   1.419       .  A
C307        C312   1.451       .  S
C308        C309   1.428       .  A
C308        C324   1.452       .  S
C309        C310   1.424       .  A
C310        C313   1.452       .  S
C311        C314   1.412       .  A
C311        C318   1.414       .  A
C312        N329   1.157       .  T
C313        N331   1.158       .  T
C314        C315   1.415       .  A
C314        C319   1.451       .  S
C315        C316   1.420       .  A
C315        C321   1.452       .  S
C316        C317   1.415       .  A
C317        C318   1.416       .  A
C317        C320   1.450       .  S
C318        C322   1.450       .  S
C319        N326   1.157       .  T
C320        N327   1.157       .  T
C321        N325   1.158       .  T
C322        N328   1.157       .  T
C323        N332   1.157       .  T
C324        N330   1.158       .  T
C333        C334   1.409       .  A
C333        C338   1.417       .  A
C333        C351   1.451       .  S
C334        C339   1.508       .  S
C334        C335   1.410       .  A
C335        C336   1.416       .  A
C335        C340   1.452       .  S
C336        C337   1.426       .  A
C336        C352   1.452       .  S
C337        C338   1.427       .  A
C338        C341   1.451       .  S
C339        C342   1.411       .  A
C339        C346   1.413       .  A
C340        N357   1.157       .  T
C341        N359   1.158       .  T
C342        C343   1.415       .  A
C342        C347   1.451       .  S
C343        C344   1.420       .  A
C343        C349   1.451       .  S
C344        C345   1.415       .  A
C345        C346   1.415       .  A
C345        C348   1.451       .  S
C346        C350   1.450       .  S
C347        N354   1.157       .  T
C348        N355   1.157       .  T
C349        N353   1.157       .  T
C350        N356   1.157       .  T
C351        N360   1.157       .  T
C352        N358   1.158       .  T
C361        C362   1.414       .  A
C361        C366   1.415       .  A
C361        C379   1.451       .  S
C362        C367   1.510       .  S
C362        C363   1.415       .  A
C363        C364   1.414       .  A
C363        C368   1.450       .  S
C364        C365   1.414       .  A
C364        C380   1.451       .  S
C365        C366   1.417       .  A
C366        C369   1.452       .  S
C367        C370   1.411       .  A
C367        C374   1.411       .  A
C368        N385   1.157       .  T
C369        N387   1.158       .  T
C370        C371   1.414       .  A
C370        C375   1.453       .  S
C371        C372   1.424       .  A
C371        C377   1.451       .  S
C372        C373   1.424       .  A
C373        C374   1.417       .  A
C373        C376   1.451       .  S
C374        C378   1.451       .  S
C375        N382   1.157       .  T
C376        N383   1.158       .  T
C377        N381   1.158       .  T
C378        N384   1.157       .  T
C379        N388   1.157       .  T
C380        N386   1.157       .  T
C389        C390   1.409       .  A
C389        C394   1.410       .  A
C389        C407   1.452       .  S
C390        C395   1.499       .  S
C390        C391   1.412       .  A
C391        C392   1.415       .  A
C391        C396   1.450       .  S
C392        C393   1.414       .  A
C392        C408   1.450       .  S
C393        C394   1.418       .  A
C394        C397   1.452       .  S
C395        C398   1.413       .  A
C395        C402   1.410       .  A
C396        N413   1.157       .  T
C397        N415   1.157       .  T
C398        C399   1.415       .  A
C398        C403   1.449       .  S
C399        C400   1.410       .  A
C399        C405   1.449       .  S
C400        C401   1.413       .  A
C401        C402   1.409       .  A
C401        C404   1.452       .  S
C402        C406   1.451       .  S
C403        N410   1.157       .  T
C404        N411   1.157       .  T
C405        N409   1.157       .  T
C406        N412   1.157       .  T
C407        N416   1.157       .  T
C408        N414   1.157       .  T
C417        C418   1.410   1_545  A
C417        C422   1.413       .  A
C417        C435   1.452       .  S
C418        C423   1.505       .  S
C418        C419   1.412       .  A
C419        C420   1.417       .  A
C419        C424   1.449       .  S
C420        C421   1.417       .  A
C420        C436   1.450       .  S
C421        C422   1.420   1_565  A
C422        C425   1.452       .  S
C423        C426   1.411       .  A
C423        C430   1.413       .  A
C424        N441   1.157       .  T
C425        N443   1.158       .  T
C426        C427   1.414       .  A
C426        C431   1.450       .  S
C427        C428   1.417       .  A
C427        C433   1.451       .  S
C428        C429   1.415       .  A
C429        C430   1.415       .  A
C429        C432   1.450       .  S
C430        C434   1.450       .  S
C431        N438   1.157       .  T
C432        N439   1.157       .  T
C433        N437   1.157       .  T
C434        N440   1.157       .  T
C435        N444   1.157       .  T
C436        N442   1.157       .  T
C445        C446   1.413       .  A
C445        C450   1.415       .  A
C445        C463   1.450       .  S
C446        C451   1.502       .  S
C446        C447   1.409       .  A
C447        C448   1.411       .  A
C447        C452   1.451       .  S
C448        C449   1.419       .  A
C448        C464   1.452       .  S
C449        C450   1.414       .  A
C450        C453   1.450       .  S
C451        C454   1.409       .  A
C451        C458   1.408       .  A
C452        N469   1.157       .  T
C453        N471   1.157       .  T
C454        C455   1.413       .  A
C454        C459   1.452   1_545  S
C455        C456   1.425       .  A
C455        C461   1.452   1_545  S
C456        C457   1.424       .  A
C457        C458   1.416       .  A
C457        C460   1.451       .  S
C458        C462   1.451       .  S
C459        N466   1.157       .  T
C460        N467   1.158       .  T
C461        N465   1.158       .  T
C462        N468   1.157       .  T
C463        N472   1.157       .  T
C464        N470   1.157       .  T
C473        C474   1.411       .  A
C473        C478   1.415       .  A
C473        C491   1.451       .  S
C474        C479   1.508       .  S
C474        C475   1.410       .  A
C475        C476   1.416       .  A
C475        C480   1.451       .  S
C476        C477   1.422       .  A
C476        C492   1.450       .  S
C477        C478   1.421       .  A
C478        C481   1.452       .  S
C479        C482   1.408       .  A
C479        C486   1.412       .  A
C480        N497   1.157       .  T
C481        N499   1.158   1_655  T
C482        C483   1.416       .  A
C482        C487   1.452       .  S
C483        C484   1.425       .  A
C483        C489   1.449       .  S
C484        C485   1.422       .  A
C485        C486   1.417       .  A
C485        C488   1.451   1_655  S
C486        C490   1.451       .  S
C487        N494   1.157       .  T
C488        N495   1.158       .  T
C489        N493   1.157       .  T
C490        N496   1.157   1_655  T
C491        N500   1.157   1_655  T
C492        N498   1.157       .  T
C501        C502   1.412       .  A
C501        C506   1.416       .  A
C501        C519   1.451       .  S
C502        C507   1.510       .  S
C502        C503   1.410       .  A
C503        C504   1.417       .  A
C503        C508   1.451       .  S
C504        C505   1.424       .  A
C504        C520   1.449       .  S
C505        C506   1.422       .  A
C506        C509   1.451       .  S
C507        C510   1.412       .  A
C507        C514   1.410       .  A
C508        N525   1.157       .  T
C509        N527   1.157   1_455  T
C510        C511   1.416       .  A
C510        C515   1.451       .  S
C511        C512   1.422       .  A
C511        C517   1.452       .  S
C512        C513   1.424       .  A
C513        C514   1.416       .  A
C513        C516   1.451       .  S
C514        C518   1.451       .  S
C515        N522   1.157   1_455  T
C516        N523   1.157       .  T
C517        N521   1.158   1_455  T
C518        N524   1.157       .  T
C519        N528   1.157   1_455  T
C520        N526   1.157       .  T
