geometry optimzed in LAMMPS
_audit_creation_date              2020-11-30 
_audit_creation_method            'lammps2cif' 
_symmetry_space_group_name_H-M    'P1' 
_symmetry_Int_Tables_number       1 
_symmetry_cell_setting            triclinic 
loop_ 
_symmetry_equiv_pos_as_xyz 
  x,y,z 
_cell_length_a                    48.62672645335108 
_cell_length_b                    48.50698022033395 
_cell_length_c                    26.863515141156835 
_cell_angle_alpha                 89.65863928806085 
_cell_angle_beta                  90.31745034595444 
_cell_angle_gamma                 90.10150017729521 
loop_ 
_atom_site_label 
_atom_site_type_symbol 
_atom_site_fract_x 
_atom_site_fract_y 
_atom_site_fract_z 
_atom_site_charge 
N1          N  0.72944965  0.72218153  0.57777277    -0.27520
N2          N  0.70983031  0.70889646  0.60200815    -0.35380
C3          C  0.71205994  0.71449852  0.65084222     0.00820
C4          C  0.73411796  0.73216309  0.65756358     0.06850
C5          C  0.74484870  0.73635977  0.61058294    -0.06250
H6          H  0.69869981  0.70620815  0.67933050     0.07510
H7          H  0.76216761  0.74930041  0.60081642     0.08710
Cu8        Cu  0.68076022  0.68397610  0.56764732     0.44170
Cu9        Cu  0.73310496  0.72235553  0.50094191     0.41990
Cu10       Cu  0.67957852  0.68672018  0.43298764     0.43880
N11         N  0.65403939  0.66094614  0.52401028    -0.34910
N12         N  0.65337463  0.66231279  0.47485841    -0.29160
C13         C  0.63416339  0.64476110  0.45771965    -0.05260
C14         C  0.62202379  0.63179708  0.49802362     0.06950
C15         C  0.63534337  0.64234808  0.53943660     0.00750
H16         H  0.63002343  0.64107210  0.41871368     0.08400
H17         H  0.63182432  0.63678296  0.57794284     0.07480
N18         N  0.70918061  0.71114919  0.39939931    -0.36360
N19         N  0.72906100  0.72376618  0.42412432    -0.28540
C20         C  0.74477731  0.73786407  0.39172599    -0.03770
C21         C  0.73406361  0.73424892  0.34430827     0.04840
C22         C  0.71169473  0.71690217  0.35063190     0.02930
H23         H  0.76285309  0.74956759  0.40207051     0.08030
H24         H  0.69806774  0.70920842  0.32190131     0.06870
N25         N  0.77916440  0.78637911  0.07573523    -0.27520
N26         N  0.79802021  0.80035048  0.10068603    -0.35380
C27         C  0.79557037  0.79457460  0.14945146     0.00820
C28         C  0.77425920  0.77588507  0.15562411     0.06850
C29         C  0.76410651  0.77148116  0.10800799    -0.06250
H30         H  0.80851485  0.80322617  0.17830993     0.07510
H31         H  0.74678778  0.75876512  0.09737912     0.08710
Cu32       Cu  0.82629879  0.82651435  0.06745349     0.44170
Cu33       Cu  0.77579177  0.78684261  0.99878524     0.41990
Cu34       Cu  0.83024670  0.82256304  0.93329172     0.43880
N35         N  0.85297808  0.85013558  0.02500319    -0.34910
N36         N  0.85506694  0.84797500  0.97612077    -0.29160
C37         C  0.87436763  0.86569297  0.95985725    -0.05260
C38         C  0.88478700  0.87971659  0.00044588     0.06950
C39         C  0.87063404  0.86956084  0.04108818     0.00750
H40         H  0.87987674  0.86866745  0.92122901     0.08400
H41         H  0.87301526  0.87578623  0.07947995     0.07480
N42         N  0.80083999  0.79831610  0.89842891    -0.36360
N43         N  0.78041963  0.78602011  0.92215237    -0.28540
C44         C  0.76481351  0.77230179  0.88901813    -0.03770
C45         C  0.77620349  0.77580088  0.84234812     0.04840
C46         C  0.79887886  0.79259989  0.84961680     0.02930
H47         H  0.74684330  0.76018758  0.89835539     0.08030
H48         H  0.81279310  0.80032110  0.82149302     0.06870
N49         N  0.72292885  0.28501272  0.57539521    -0.27520
N50         N  0.70675906  0.30235658  0.59910826    -0.35380
C51         C  0.71008476  0.29875560  0.64844059     0.00820
C52         C  0.72956146  0.27835914  0.65627300     0.06850
C53         C  0.73699482  0.26991416  0.60905190    -0.06250
H54         H  0.69860809  0.30973119  0.67639450     0.07510
H55         H  0.75158466  0.25395015  0.59981959     0.08710
Cu56       Cu  0.68051861  0.32972517  0.56334748     0.44170
Cu57       Cu  0.72465938  0.28238779  0.49839603     0.41990
Cu58       Cu  0.67493177  0.32342056  0.42932310     0.43880
N59         N  0.65497190  0.35399619  0.51947666    -0.34910
N60         N  0.65215174  0.35107516  0.47079096    -0.29160
C61         C  0.63331131  0.36920598  0.45395001    -0.05260
C62         C  0.62425177  0.38448241  0.49387397     0.06950
C63         C  0.63829634  0.37427962  0.53482420     0.00750
H64         H  0.62691746  0.37130818  0.41547567     0.08400
H65         H  0.63621018  0.38079304  0.57306696     0.07480
N66         N  0.70293931  0.29713892  0.39619492    -0.36360
N67         N  0.72165260  0.28288527  0.42129414    -0.28540
C68         C  0.73748388  0.26914046  0.38891869    -0.03770
C69         C  0.72815885  0.27494071  0.34132274     0.04840
C70         C  0.70615934  0.29257393  0.34721782     0.02930
H71         H  0.75439836  0.25578008  0.39927188     0.08030
H72         H  0.69373377  0.30180178  0.31804749     0.06870
N73         N  0.77637791  0.22485076  0.07691054    -0.27520
N74         N  0.79552430  0.21095798  0.10156156    -0.35380
C75         C  0.79247415  0.21530343  0.15064003     0.00820
C76         C  0.77008967  0.23237656  0.15709303     0.06850
C77         C  0.76038835  0.23810363  0.10969599    -0.06250
H78         H  0.80535586  0.20639548  0.17948310     0.07510
H79         H  0.74318751  0.25118548  0.09975196     0.08710
Cu80       Cu  0.82422365  0.18592154  0.06745754     0.44170
Cu81       Cu  0.77336463  0.22577653  0.99980237     0.41990
Cu82       Cu  0.82181570  0.18338956  0.93271597     0.43880
N83         N  0.84974952  0.16135958  0.02505266    -0.34910
N84         N  0.84896280  0.16050368  0.97590563    -0.29160
C85         C  0.86776897  0.14232034  0.96004240    -0.05260
C86         C  0.88123163  0.13132943  0.00115384     0.06950
C87         C  0.86899359  0.14367336  0.04175834     0.00750
H88         H  0.87126828  0.13734727  0.92138970     0.08400
H89         H  0.87309090  0.13954508  0.08070043     0.07480
N90         N  0.79268712  0.20825257  0.89828670    -0.36360
N91         N  0.77518073  0.22393184  0.92270300    -0.28540
C92         C  0.75978449  0.23810943  0.88964742    -0.03770
C93         C  0.76769812  0.23070057  0.84214970     0.04840
C94         C  0.78878684  0.21191296  0.84909570     0.02930
H95         H  0.74407021  0.25284330  0.89946213     0.08030
H96         H  0.80100064  0.20223212  0.82059294     0.06870
N97         N  0.28870808  0.73514465  0.57836984    -0.27520
N98         N  0.30300559  0.71627686  0.60287690    -0.35380
C99         C  0.29835493  0.71892810  0.65189870     0.00820
C100        C  0.28057335  0.74086498  0.65882714     0.06850
C101        C  0.27470662  0.75042777  0.61120074    -0.06250
H102        H  0.30663919  0.70521467  0.68006862     0.07510
H103        H  0.26096985  0.76709110  0.60106342     0.08710
Cu104      Cu  0.32796421  0.68769093  0.56841410     0.44170
Cu105      Cu  0.28745226  0.73787099  0.50131669     0.41990
Cu106      Cu  0.32556428  0.68591617  0.43362182     0.43880
N107        N  0.35255394  0.66240615  0.52573103    -0.34910
N108        N  0.35147554  0.66142011  0.47658804    -0.29160
C109        C  0.36992191  0.64288318  0.46059001    -0.05260
C110        C  0.38353477  0.63202697  0.50161299     0.06950
C111        C  0.37180807  0.64469393  0.54228450     0.00750
H112        H  0.37332781  0.63783630  0.42194005     0.08400
H113        H  0.37652748  0.64097501  0.58114936     0.07480
N114        N  0.29962603  0.71446540  0.39995904    -0.36360
N115        N  0.28619053  0.73369272  0.42454654    -0.28540
C116        C  0.27157143  0.74900452  0.39202163    -0.03770
C117        C  0.27565609  0.73871487  0.34464043     0.04840
C118        C  0.29384176  0.71701636  0.35114268     0.02930
H119        H  0.25930583  0.76663611  0.40225158     0.08030
H120        H  0.30220013  0.70395133  0.32246682     0.06870
N121        N  0.22339387  0.78433559  0.07555069    -0.27520
N122        N  0.20903638  0.80280953  0.10026868    -0.35380
C123        C  0.21475338  0.80029706  0.14910066     0.00820
C124        C  0.23382878  0.77936503  0.15555318     0.06850
C125        C  0.23851049  0.76948694  0.10803447    -0.06250
H126        H  0.20571586  0.81286364  0.17782323     0.07510
H127        H  0.25148694  0.75241200  0.09764626     0.08710
Cu128      Cu  0.18201904  0.83027544  0.06665039     0.44170
Cu129      Cu  0.22269731  0.78082571  0.99864308     0.41990
Cu130      Cu  0.18222752  0.83155615  0.93182274     0.43880
N131        N  0.15585891  0.85455451  0.02393825    -0.34910
N132        N  0.15604071  0.85513046  0.97474702    -0.29160
C133        C  0.13664558  0.87278919  0.95851471    -0.05260
C134        C  0.12338186  0.88365028  0.99942186     0.06950
C135        C  0.13634022  0.87182502  0.04030220     0.00750
H136        H  0.13244131  0.87731676  0.91972459     0.08400
H137        H  0.13238028  0.87589900  0.07913824     0.07480
N138        N  0.20779984  0.80345645  0.89734311    -0.36360
N139        N  0.22197785  0.78441495  0.92166866    -0.28540
C140        C  0.23614738  0.76935476  0.88874022    -0.03770
C141        C  0.23050639  0.77921642  0.84123984     0.04840
C142        C  0.21269289  0.80111124  0.84833708     0.02930
H143        H  0.24975681  0.75255812  0.89872149     0.08030
H144        H  0.20443763  0.81491263  0.82027832     0.06870
O145        O  0.97368146  0.97673547  0.95666898    -0.73170
O146        O  0.02950305  0.03783012  0.95799950    -0.74150
O147        O  0.03183739  0.97929375  0.95672505    -0.62770
O148        O  0.97133516  0.03524890  0.95772508    -0.71180
O149        O  0.97295202  0.03609527  0.04025922    -0.70740
O150        O  0.03062839  0.97700295  0.03918486    -0.61990
O151        O  0.03123113  0.03548979  0.04061503    -0.74500
O152        O  0.97228846  0.97770486  0.03931363    -0.73280
Cu153      Cu  0.00158601  0.00730334  0.95436859     1.04560
Cu154      Cu  0.00178856  0.00653798  0.04275193     1.04330
C155        C  0.96398366  0.96789141  0.99787399     0.93020
C156        C  0.03928417  0.04605226  0.99956811     0.92160
C157        C  0.04060293  0.96907525  0.99774027     0.84310
C158        C  0.96277216  0.04473128  0.99907618     0.90580
O159        O  0.53107280  0.53560439  0.45675536    -0.73170
O160        O  0.47181359  0.47786778  0.46009522    -0.74150
O161        O  0.47276938  0.53592894  0.45958610    -0.62770
O162        O  0.53009417  0.47682979  0.45676461    -0.71180
O163        O  0.53215551  0.47684217  0.53944171    -0.70740
O164        O  0.47467746  0.53623778  0.54218291    -0.61990
O165        O  0.47367761  0.47756021  0.54264354    -0.74500
O166        O  0.53297345  0.53499866  0.53935039    -0.73280
Cu167      Cu  0.50143398  0.50654704  0.45541283     1.04560
Cu168      Cu  0.50341525  0.50637953  0.54380861     1.04330
C169        C  0.54138813  0.54435549  0.49760982     0.93140
C170        C  0.46329388  0.46870828  0.50196420     0.92160
C171        C  0.46453919  0.54527584  0.50122816     0.84310
C172        C  0.54014138  0.46757205  0.49755773     0.90580
N173        N  0.21877392  0.23224885  0.92497348    -0.27520
N174        N  0.20430861  0.21365009  0.90041149    -0.35380
C175        C  0.20985274  0.21604957  0.85159049     0.00820
C176        C  0.22886011  0.23711471  0.84509781     0.06850
C177        C  0.23368534  0.24712700  0.89253524    -0.06250
H178        H  0.20052207  0.20352963  0.82286698     0.07510
H179        H  0.24638009  0.26450913  0.90289767     0.08710
Cu180      Cu  0.17679767  0.18697465  0.93465184     0.44170
Cu181      Cu  0.21797334  0.23645155  0.00142641     0.41990
Cu182      Cu  0.17367726  0.19038743  0.07009101     0.43880
N183        N  0.15011990  0.16368950  0.97790979    -0.34910
N184        N  0.14926179  0.16461823  0.02710815    -0.29160
C185        C  0.13036559  0.14647027  0.04349418    -0.05260
C186        C  0.11864604  0.13384744  0.00262639     0.06950
C187        C  0.13160894  0.14512305  0.96168982     0.00750
H188        H  0.12560410  0.14269299  0.08223202     0.08400
H189        H  0.12819498  0.13988274  0.92305259     0.07480
N190        N  0.20011947  0.21837390  0.10358871    -0.36360
N191        N  0.21618915  0.23529671  0.07822784    -0.28540
C192        C  0.23133576  0.25023035  0.11022225    -0.03770
C193        C  0.22426687  0.24260289  0.15818782     0.04840
C194        C  0.20461126  0.22212983  0.15252768     0.02930
H195        H  0.24702085  0.26484000  0.09918787     0.08030
H196        H  0.19450803  0.21062398  0.18183010     0.06870
N197        N  0.27758223  0.28710197  0.57731869    -0.27520
N198        N  0.29119966  0.30608716  0.60251777    -0.35380
C199        C  0.28579399  0.30291263  0.65124789     0.00820
C200        C  0.26774110  0.28097487  0.65700280     0.06850
C201        C  0.26332804  0.27125147  0.60925899    -0.06250
H202        H  0.29446184  0.31560023  0.68039976     0.07510
H203        H  0.25126949  0.25351960  0.59834318     0.08710
Cu204      Cu  0.31718117  0.33472238  0.56943474     0.44170
Cu205      Cu  0.27848942  0.28367633  0.50071393     0.41990
Cu206      Cu  0.32060644  0.33231972  0.43406596     0.43880
N207        N  0.34249085  0.35988564  0.52683850    -0.34910
N208        N  0.34351356  0.35908633  0.47768446    -0.29160
C209        C  0.36217562  0.37751703  0.46163605    -0.05260
C210        C  0.37335191  0.39071378  0.50256478     0.06950
C211        C  0.36060851  0.37878714  0.54332527     0.00750
H212        H  0.36778853  0.38042915  0.42305212     0.08400
H213        H  0.36435712  0.38338022  0.58213972     0.07480
N214        N  0.29595627  0.30323893  0.39928138    -0.36360
N215        N  0.28056291  0.28540378  0.42395575    -0.28540
C216        C  0.26632997  0.26999932  0.39134402    -0.03770
C217        C  0.27334268  0.27824205  0.34364888     0.04840
C218        C  0.29197873  0.29958892  0.35017521     0.02930
H219        H  0.25120047  0.25468935  0.40180594     0.08030
H220        H  0.30167053  0.31181075  0.32135400     0.06870
C221        C  0.22187773  0.24818965  0.75556251    -0.09390
C222        C  0.23947643  0.24799608  0.79718774     0.06810
C223        C  0.26647169  0.25840786  0.79190678    -0.03150
C224        C  0.27499228  0.26911936  0.74606734    -0.07600
C225        C  0.25734681  0.26944041  0.70453802     0.05920
C226        C  0.23043182  0.25882890  0.70968118    -0.02630
Br227      Br  0.20342404  0.26009304  0.65729847    -0.02320
H228        H  0.20098755  0.24065518  0.75897229     0.09840
H229        H  0.29586124  0.27671831  0.74262621     0.07850
Br230      Br  0.29362539  0.25685843  0.84402226    -0.02750
C231        C  0.25501362  0.28810414  0.25899579    -0.09390
C232        C  0.26133216  0.26858098  0.29609288     0.06810
C233        C  0.25557116  0.24049953  0.28715196    -0.03150
C234        C  0.24323032  0.23263450  0.24227581    -0.07600
C235        C  0.23680847  0.25217531  0.20530243     0.05920
C236        C  0.24277247  0.28021919  0.21404295    -0.02630
Br237      Br  0.23282970  0.30903869  0.16810317    -0.02320
H238        H  0.25896305  0.30977891  0.26548098     0.09840
H239        H  0.23922208  0.21097071  0.23575918     0.07850
Br240      Br  0.26591172  0.21158871  0.33261684    -0.02750
C241        C  0.41885750  0.45161560  0.46890680    -0.09390
C242        C  0.44060647  0.44844640  0.50299378     0.06810
C243        C  0.43979770  0.42645771  0.53756917    -0.03150
C244        C  0.41750264  0.40815474  0.53730644    -0.07600
C245        C  0.39584792  0.41125005  0.50293293     0.05920
C246        C  0.39646563  0.43352415  0.46897968    -0.02630
Br247      Br  0.36643921  0.44176022  0.42464993    -0.02320
H248        H  0.41894167  0.46870234  0.44276257     0.09840
H249        H  0.41740930  0.39101746  0.56335900     0.07850
Br250      Br  0.46929432  0.41921660  0.58361168    -0.02750
C251        C  0.05149255  0.09520463  0.98877949    -0.09390
C252        C  0.05978258  0.06824309  0.00031451     0.06810
C253        C  0.08734830  0.06303283  0.01338689    -0.03150
C254        C  0.10630133  0.08474790  0.01437791    -0.07600
C255        C  0.09804131  0.11169064  0.00264683     0.05920
C256        C  0.07039650  0.11695767  0.99022112    -0.02630
Br257      Br  0.05745504  0.15360479  0.97689046    -0.02320
H258        H  0.03019689  0.09938117  0.97937277     0.09840
H259        H  0.12758648  0.08057854  0.02384493     0.07850
Br260      Br  0.10010548  0.02651496  0.02843651    -0.02750
C261        C  0.10360363  0.92684860  0.96475727    -0.09390
C262        C  0.10166243  0.90498223  0.99903957     0.06810
C263        C  0.07919076  0.90415677  0.03205455    -0.03150
C264        C  0.05985972  0.92547559  0.03143171    -0.07600
C265        C  0.06195058  0.94745679  0.99744625     0.05920
C266        C  0.08403079  0.94793151  0.96358237    -0.02630
Br267      Br  0.08958289  0.97745049  0.91672703    -0.02320
H268        H  0.12075416  0.92783989  0.93924329     0.09840
H269        H  0.04262580  0.92446455  0.05677784     0.07850
Br270      Br  0.07221562  0.87345426  0.07564271    -0.02750
C271        C  0.40040550  0.58677541  0.47234226    -0.09390
C272        C  0.40463753  0.61016867  0.50188741     0.06810
C273        C  0.42869952  0.61198716  0.53131255    -0.03150
C274        C  0.44768571  0.59034441  0.53143659    -0.07600
C275        C  0.44342085  0.56699417  0.50184926     0.05920
C276        C  0.41947190  0.56524162  0.47222563    -0.02630
Br277      Br  0.41088158  0.53321564  0.43343619    -0.02320
H278        H  0.38189290  0.58498916  0.44994929     0.09840
H279        H  0.46627847  0.59211655  0.55362494     0.07850
Br280      Br  0.43797013  0.64436801  0.56859002    -0.02750
C281        C  0.22779218  0.76829061  0.24520903    -0.09390
C282        C  0.24510449  0.76899393  0.20353858     0.06810
C283        C  0.27255590  0.75992121  0.20901201    -0.03150
C284        C  0.28184846  0.75001813  0.25514016    -0.07600
C285        C  0.26451424  0.74928519  0.29675019     0.05920
C286        C  0.23712346  0.75849806  0.29137249    -0.02630
Br287      Br  0.21064864  0.75636057  0.34402915    -0.02320
H288        H  0.20658317  0.77484082  0.24165088     0.09840
H289        H  0.30304426  0.74342638  0.25877177     0.07850
Br290      Br  0.29921015  0.76247247  0.15670833    -0.02750
C291        C  0.24074564  0.75932559  0.70552451    -0.09390
C292        C  0.26829426  0.75065846  0.70597120     0.06810
C293        C  0.28320451  0.75164911  0.75121049    -0.03150
C294        C  0.27036714  0.76086097  0.79451386    -0.07600
C295        C  0.24281925  0.76952529  0.79406174     0.05920
C296        C  0.22791212  0.76854311  0.74882491    -0.02630
Br297      Br  0.18950256  0.77730264  0.74376445    -0.02320
H298        H  0.22882151  0.75833572  0.67139926     0.09840
H299        H  0.28227627  0.76182881  0.82866016     0.07850
Br300      Br  0.32161142  0.74287448  0.75629515    -0.02750
C301        C  0.89992370  0.08781261  0.96690005    -0.09390
C302        C  0.90240094  0.10942030  0.00122968     0.06810
C303        C  0.92495342  0.10950490  0.03457902    -0.03150
C304        C  0.94398686  0.08793793  0.03378186    -0.07600
C305        C  0.94148754  0.06638433  0.99945500     0.05920
C306        C  0.91915994  0.06642830  0.96571739    -0.02630
Br307      Br  0.91286374  0.03715073  0.91917096    -0.02320
H308        H  0.88264117  0.08727733  0.94130050     0.09840
H309        H  0.96136109  0.08845854  0.05920446     0.07850
Br310      Br  0.93253326  0.13948277  0.07896681    -0.02750
C311        C  0.58828930  0.45287491  0.51084064    -0.09390
C312        C  0.56140722  0.44618878  0.49621623     0.06810
C313        C  0.55537778  0.41934242  0.47987171    -0.03150
C314        C  0.57625235  0.39954606  0.47841849    -0.07600
C315        C  0.60311748  0.40614947  0.49351984     0.05920
C316        C  0.60917032  0.43312159  0.50935775    -0.02630
Br317      Br  0.64586860  0.44435590  0.52643400    -0.02320
H318        H  0.59312615  0.47362970  0.52270807     0.09840
H319        H  0.57139063  0.37878901  0.46651302     0.07850
Br320      Br  0.51868720  0.40854987  0.46182752    -0.02750
C321        C  0.77568509  0.26032867  0.23346637    -0.09390
C322        C  0.75926026  0.24282493  0.20442263     0.06810
C323        C  0.73265577  0.23586563  0.22072098    -0.03150
C324        C  0.72271574  0.24673451  0.26526750    -0.07600
C325        C  0.73911295  0.26428552  0.29425069     0.05920
C326        C  0.76574590  0.27119343  0.27802558    -0.02630
Br327      Br  0.78856806  0.29661927  0.31393842    -0.02320
H328        H  0.79609341  0.26595699  0.22096206     0.09840
H329        H  0.70230049  0.24112122  0.27775825     0.07850
Br330      Br  0.70986231  0.21037441  0.18490800    -0.02750
C331        C  0.74267397  0.23796104  0.70839855    -0.09390
C332        C  0.73918532  0.26662097  0.70431479     0.06810
C333        C  0.74508871  0.28324696  0.74601843    -0.03150
C334        C  0.75390455  0.27103456  0.79062979    -0.07600
C335        C  0.75750140  0.24241234  0.79457690     0.05920
C336        C  0.75162736  0.22578308  0.75295323    -0.02630
Br337      Br  0.75350438  0.18627607  0.75551478    -0.02320
H338        H  0.73791970  0.22485837  0.67697667     0.09840
H339        H  0.75872428  0.28409385  0.82208623     0.07850
Br340      Br  0.74392480  0.32278774  0.74360814    -0.02750
C341        C  0.89812362  0.92800975  0.01848915    -0.09390
C342        C  0.90532690  0.90203872  0.99996024     0.06810
C343        C  0.93185549  0.89795293  0.98058662    -0.03150
C344        C  0.95058792  0.91984780  0.97932947    -0.07600
C345        C  0.94335723  0.94578394  0.99778666     0.05920
C346        C  0.91690140  0.94988804  0.01733086    -0.02630
Br347      Br  0.90514448  0.98534221  0.04025975    -0.02320
H348        H  0.87768550  0.93139334  0.03307033     0.09840
H349        H  0.97108408  0.91646107  0.96498983     0.07850
Br350      Br  0.94410457  0.86245338  0.95882692    -0.02750
C351        C  0.60519858  0.58626579  0.52745709    -0.09390
C352        C  0.60120729  0.60957775  0.49709841     0.06810
C353        C  0.57758297  0.61103484  0.46645918    -0.03150
C354        C  0.55874462  0.58920237  0.46614979    -0.07600
C355        C  0.56268164  0.56600243  0.49674200     0.05920
C356        C  0.58624450  0.56455638  0.52744583    -0.02630
Br357      Br  0.59439597  0.53283057  0.56792851    -0.02320
H358        H  0.62339059  0.58472720  0.55077425     0.09840
H359        H  0.54043165  0.59077028  0.44313836     0.07850
Br360      Br  0.56857143  0.64321317  0.42781800    -0.02750
C361        C  0.73786957  0.76764385  0.78292043    -0.09390
C362        C  0.76581027  0.76449722  0.79493341     0.06810
C363        C  0.78316625  0.75061819  0.76152473    -0.03150
C364        C  0.77248572  0.74053467  0.71671558    -0.07600
C365        C  0.74454636  0.74363911  0.70477264     0.05920
C366        C  0.72719017  0.75752408  0.73813020    -0.02630
Br367      Br  0.68933027  0.76505517  0.72281321    -0.02320
H368        H  0.72440171  0.77852389  0.80805724     0.09840
H369        H  0.78593441  0.72964006  0.69156291     0.07850
Br370      Br  0.82098878  0.74286256  0.77679555    -0.02750
C371        C  0.74457657  0.72802226  0.25480386    -0.09390
C372        C  0.74458233  0.74529072  0.29654882     0.06810
C373        C  0.75434197  0.77257175  0.29139613    -0.03150
C374        C  0.76396276  0.78187282  0.24529097    -0.07600
C375        C  0.76395510  0.76463085  0.20347178     0.05920
C376        C  0.75431355  0.73727652  0.20872008    -0.02630
Br377      Br  0.75582171  0.71066620  0.15618139    -0.02320
H378        H  0.73750971  0.70690601  0.25829572     0.09840
H379        H  0.77094977  0.80301654  0.24190279     0.07850
Br380      Br  0.75316737  0.79896183  0.34432203    -0.02750
loop_ 
_geom_bond_atom_site_label_1 
_geom_bond_atom_site_label_2 
_geom_bond_distance 
_geom_bond_site_symmetry_2 
_ccdc_geom_bond_type 
N1            N2   1.322       .  A
N1            C5   1.345       .  A
N1           Cu9   2.073       .  S
N2            C3   1.345       .  A
N2           Cu8   2.075       .  S
C3            C4   1.383       .  A
C3            H6   1.082       .  S
C4            C5   1.382       .  A
C4          C365   1.475       .  S
C5            H7   1.082       .  S
Cu8          N11   2.075       .  S
Cu9          N19   2.073       .  S
Cu10         N12   2.070       .  S
Cu10         N18   2.070       .  S
N11          N12   1.322       .  A
N11          C15   1.345       .  A
N12          C13   1.344       .  A
C13          C14   1.383       .  A
C13          H16   1.082       .  S
C14          C15   1.384       .  A
C14         C352   1.478       .  S
C15          H17   1.082       .  S
N18          N19   1.321       .  A
N18          C22   1.344       .  A
N19          C20   1.344       .  A
C20          C21   1.386       .  A
C20          H23   1.081       .  S
C21          C22   1.385       .  A
C21         C372   1.481       .  S
C22          H24   1.082       .  S
N25          N26   1.321       .  A
N25          C29   1.345       .  A
N25         Cu33   2.073   1_554  S
N26          C27   1.344       .  A
N26         Cu32   2.072       .  S
C27          C28   1.386       .  A
C27          H30   1.082       .  S
C28          C29   1.386       .  A
C28         C375   1.483       .  S
C29          H31   1.081       .  S
Cu32         N35   2.072       .  S
Cu33         N43   2.073       .  S
Cu34         N36   2.073       .  S
Cu34         N42   2.073       .  S
N35          N36   1.322   1_554  A
N35          C39   1.345       .  A
N36          C37   1.344       .  A
C37          C38   1.382   1_556  A
C37          H40   1.082       .  S
C38          C39   1.382       .  A
C38         C342   1.472   1_554  S
C39          H41   1.082       .  S
N42          N43   1.322       .  A
N42          C46   1.345       .  A
N43          C44   1.345       .  A
C44          C45   1.383       .  A
C44          H47   1.082       .  S
C45          C46   1.384       .  A
C45         C362   1.476       .  S
C46          H48   1.082       .  S
N49          N50   1.321       .  A
N49          C53   1.345       .  A
N49         Cu57   2.075       .  S
N50          C51   1.345       .  A
N50         Cu56   2.071       .  S
C51          C52   1.385       .  A
C51          H54   1.081       .  S
C52          C53   1.385       .  A
C52         C332   1.481       .  S
C53          H55   1.082       .  S
Cu56         N59   2.071       .  S
Cu57         N67   2.076       .  S
Cu58         N60   2.075       .  S
Cu58         N66   2.075       .  S
N59          N60   1.323       .  A
N59          C63   1.344       .  A
N60          C61   1.346       .  A
C61          C62   1.382       .  A
C61          H64   1.082       .  S
C62          C63   1.381       .  A
C62         C315   1.471       .  S
C63          H65   1.082       .  S
N66          N67   1.323       .  A
N66          C70   1.346       .  A
N67          C68   1.345       .  A
C68          C69   1.382       .  A
C68          H71   1.082       .  S
C69          C70   1.381       .  A
C69         C325   1.472       .  S
C70          H72   1.082       .  S
N73          N74   1.323       .  A
N73          C77   1.345       .  A
N73         Cu81   2.076   1_554  S
N74          C75   1.345       .  A
N74         Cu80   2.072       .  S
C75          C76   1.381       .  A
C75          H78   1.082       .  S
C76          C77   1.382       .  A
C76         C322   1.472       .  S
C77          H79   1.082       .  S
Cu80         N83   2.072       .  S
Cu81         N91   2.076       .  S
Cu82         N84   2.072       .  S
Cu82         N90   2.072       .  S
N83          N84   1.322   1_554  A
N83          C87   1.344       .  A
N84          C85   1.344       .  A
C85          C86   1.385   1_556  A
C85          H88   1.082       .  S
C86          C87   1.385       .  A
C86         C302   1.481       .  S
C87          H89   1.081       .  S
N90          N91   1.322       .  A
N90          C94   1.345       .  A
N91          C92   1.345       .  A
C92          C93   1.384       .  A
C92          H95   1.082       .  S
C93          C94   1.384       .  A
C93         C335   1.479       .  S
C94          H96   1.082       .  S
N97          N98   1.321       .  A
N97         C101   1.344       .  A
N97        Cu105   2.074       .  S
N98          C99   1.344       .  A
N98        Cu104   2.070       .  S
C99         C100   1.386       .  A
C99         H102   1.081       .  S
C100        C101   1.387       .  A
C100        C292   1.484       .  S
C101        H103   1.082       .  S
Cu104       N107   2.070       .  S
Cu105       N115   2.074       .  S
Cu106       N108   2.075       .  S
Cu106       N114   2.075       .  S
N107        N108   1.322       .  A
N107        C111   1.344       .  A
N108        C109   1.345       .  A
C109        C110   1.384       .  A
C109        H112   1.082       .  S
C110        C111   1.383       .  A
C110        C272   1.477       .  S
C111        H113   1.082       .  S
N114        N115   1.322       .  A
N114        C118   1.345       .  A
N115        C116   1.344       .  A
C116        C117   1.385       .  A
C116        H119   1.081       .  S
C117        C118   1.386       .  A
C117        C285   1.482       .  S
C118        H120   1.082       .  S
N121        N122   1.321       .  A
N121        C125   1.345       .  A
N121       Cu129   2.074   1_554  S
N122        C123   1.344       .  A
N122       Cu128   2.073       .  S
C123        C124   1.386       .  A
C123        H126   1.082       .  S
C124        C125   1.386       .  A
C124        C282   1.484       .  S
C125        H127   1.081       .  S
Cu128       N131   2.072       .  S
Cu129       N139   2.074       .  S
Cu130       N132   2.073       .  S
Cu130       N138   2.073       .  S
N131        N132   1.322   1_554  A
N131        C135   1.345       .  A
N132        C133   1.344       .  A
C133        C134   1.385       .  A
C133        H136   1.082       .  S
C134        C135   1.385   1_556  A
C134        C262   1.480       .  S
C135        H137   1.081       .  S
N138        N139   1.321       .  A
N138        C142   1.345       .  A
N139        C140   1.344       .  A
C140        C141   1.386       .  A
C140        H143   1.082       .  S
C141        C142   1.386       .  A
C141        C295   1.484       .  S
C142        H144   1.081       .  S
O145       Cu153   2.009   1_665  S
O145        C155   1.277       .  A
O146       Cu153   2.010       .  S
O146        C156   1.277       .  A
O147       Cu153   2.005   1_565  S
O147        C157   1.277       .  A
O148       Cu153   2.005   1_655  S
O148        C158   1.277       .  A
O149       Cu154   2.008   1_655  S
O149        C158   1.278   1_554  A
O150       Cu154   2.010   1_565  S
O150        C157   1.278   1_554  A
O151       Cu154   2.005       .  S
O151        C156   1.276   1_554  A
O152       Cu154   2.004   1_665  S
O152        C155   1.277   1_554  A
Cu153      Cu154   2.374   1_556  S
C155        C345   1.467       .  S
C156        C252   1.466   1_556  S
C157        C265   1.477       .  S
C158        C305   1.476       .  S
O159       Cu167   2.014       .  S
O159        C169   1.279       .  A
O160       Cu167   2.005       .  S
O160        C170   1.278       .  A
O161       Cu167   1.999       .  S
O161        C171   1.276       .  A
O162       Cu167   2.007       .  S
O162        C172   1.277       .  A
O163       Cu168   2.008       .  S
O163        C172   1.277       .  A
O164       Cu168   2.014       .  S
O164        C171   1.279       .  A
O165       Cu168   2.010       .  S
O165        C170   1.278       .  A
O166       Cu168   2.000       .  S
O166        C169   1.276       .  A
Cu167      Cu168   2.376       .  S
C169        C355   1.474       .  S
C170        C242   1.476       .  S
C171        C275   1.473       .  S
C172        C312   1.467       .  S
N173        N174   1.321       .  A
N173        C177   1.343       .  A
N173       Cu181   2.066   1_556  S
N174        C175   1.345       .  A
N174       Cu180   2.074       .  S
C175        C176   1.387       .  A
C175        H178   1.082       .  S
C176        C177   1.385       .  A
C176        C222   1.483       .  S
C177        H179   1.081       .  S
Cu180       N183   2.075       .  S
Cu181       N191   2.066       .  S
Cu182       N184   2.074       .  S
Cu182       N190   2.074       .  S
N183        N184   1.324   1_556  A
N183        C187   1.345       .  A
N184        C185   1.345       .  A
C185        C186   1.380       .  A
C185        H188   1.082       .  S
C186        C187   1.380   1_554  A
C186        C255   1.468       .  S
C187        H189   1.082       .  S
N190        N191   1.321       .  A
N190        C194   1.345       .  A
N191        C192   1.343       .  A
C192        C193   1.384       .  A
C192        H195   1.082       .  S
C193        C194   1.386       .  A
C193        C235   1.479       .  S
C194        H196   1.082       .  S
N197        N198   1.321       .  A
N197        C201   1.343       .  A
N197       Cu205   2.066       .  S
N198        C199   1.345       .  A
N198       Cu204   2.075       .  S
C199        C200   1.387       .  A
C199        H202   1.082       .  S
C200        C201   1.385       .  A
C200        C225   1.482       .  S
C201        H203   1.081       .  S
Cu204       N207   2.075       .  S
Cu205       N215   2.066       .  S
Cu206       N208   2.073       .  S
Cu206       N214   2.073       .  S
N207        N208   1.322       .  A
N207        C211   1.346       .  A
N208        C209   1.344       .  A
C209        C210   1.384       .  A
C209        H212   1.082       .  S
C210        C211   1.384       .  A
C210        C245   1.478       .  S
C211        H213   1.082       .  S
N214        N215   1.321       .  A
N214        C218   1.345       .  A
N215        C216   1.343       .  A
C216        C217   1.384       .  A
C216        H219   1.081       .  S
C217        C218   1.386       .  A
C217        C232   1.480       .  S
C218        H220   1.082       .  S
C221        C222   1.404       .  A
C221        C226   1.399       .  A
C221        H228   1.083       .  S
C222        C223   1.413       .  A
C223        C224   1.398       .  A
C223       Br230   1.920       .  S
C224        C225   1.404       .  A
C224        H229   1.083       .  S
C225        C226   1.413       .  A
C226       Br227   1.920       .  S
C231        C232   1.404       .  A
C231        C236   1.398       .  A
C231        H238   1.083       .  S
C232        C233   1.412       .  A
C233        C234   1.398       .  A
C233       Br240   1.920       .  S
C234        C235   1.403       .  A
C234        H239   1.084       .  S
C235        C236   1.411       .  A
C236       Br237   1.920       .  S
C241        C242   1.403       .  A
C241        C246   1.397       .  A
C241        H248   1.083       .  S
C242        C243   1.411       .  A
C243        C244   1.400       .  A
C243       Br250   1.920       .  S
C244        C245   1.404       .  A
C244        H249   1.083       .  S
C245        C246   1.410       .  A
C246       Br247   1.920       .  S
C251        C252   1.402   1_556  A
C251        C256   1.399       .  A
C251        H258   1.084       .  S
C252        C253   1.407       .  A
C253        C254   1.399       .  A
C253       Br260   1.918       .  S
C254        C255   1.402       .  A
C254        H259   1.084       .  S
C255        C256   1.407   1_554  A
C256       Br257   1.918       .  S
C261        C262   1.404       .  A
C261        C266   1.398       .  A
C261        H268   1.083       .  S
C262        C263   1.412   1_556  A
C263        C264   1.399       .  A
C263       Br270   1.920       .  S
C264        C265   1.403   1_554  A
C264        H269   1.084       .  S
C265        C266   1.411       .  A
C266       Br267   1.921       .  S
C271        C272   1.403       .  A
C271        C276   1.398       .  A
C271        H278   1.084       .  S
C272        C273   1.411       .  A
C273        C274   1.399       .  A
C273       Br280   1.919       .  S
C274        C275   1.402       .  A
C274        H279   1.084       .  S
C275        C276   1.410       .  A
C276       Br277   1.920       .  S
C281        C282   1.405       .  A
C281        C286   1.399       .  A
C281        H288   1.083       .  S
C282        C283   1.413       .  A
C283        C284   1.399       .  A
C283       Br290   1.920       .  S
C284        C285   1.404       .  A
C284        H289   1.083       .  S
C285        C286   1.412       .  A
C286       Br287   1.920       .  S
C291        C292   1.405       .  A
C291        C296   1.399       .  A
C291        H298   1.083       .  S
C292        C293   1.413       .  A
C293        C294   1.399       .  A
C293       Br300   1.920       .  S
C294        C295   1.405       .  A
C294        H299   1.083       .  S
C295        C296   1.413       .  A
C296       Br297   1.920       .  S
C301        C302   1.405   1_556  A
C301        C306   1.399       .  A
C301        H308   1.083       .  S
C302        C303   1.412       .  A
C303        C304   1.398       .  A
C303       Br310   1.920       .  S
C304        C305   1.403   1_554  A
C304        H309   1.084       .  S
C305        C306   1.410       .  A
C306       Br307   1.921       .  S
C311        C312   1.401       .  A
C311        C316   1.398       .  A
C311        H318   1.083       .  S
C312        C313   1.407       .  A
C313        C314   1.399       .  A
C313       Br320   1.919       .  S
C314        C315   1.403       .  A
C314        H319   1.084       .  S
C315        C316   1.408       .  A
C316       Br317   1.919       .  S
C321        C322   1.402       .  A
C321        C326   1.400       .  A
C321        H328   1.083       .  S
C322        C323   1.408       .  A
C323        C324   1.399       .  A
C323       Br330   1.918       .  S
C324        C325   1.402       .  A
C324        H329   1.083       .  S
C325        C326   1.408       .  A
C326       Br327   1.919       .  S
C331        C332   1.404       .  A
C331        C336   1.399       .  A
C331        H338   1.083       .  S
C332        C333   1.412       .  A
C333        C334   1.399       .  A
C333       Br340   1.920       .  S
C334        C335   1.403       .  A
C334        H339   1.083       .  S
C335        C336   1.410       .  A
C336       Br337   1.920       .  S
C341        C342   1.403   1_554  A
C341        C346   1.399       .  A
C341        H348   1.083       .  S
C342        C343   1.408       .  A
C343        C344   1.398       .  A
C343       Br350   1.919       .  S
C344        C345   1.401       .  A
C344        H349   1.084       .  S
C345        C346   1.407   1_556  A
C346       Br347   1.919       .  S
C351        C352   1.403       .  A
C351        C356   1.398       .  A
C351        H358   1.084       .  S
C352        C353   1.411       .  A
C353        C354   1.399       .  A
C353       Br360   1.919       .  S
C354        C355   1.402       .  A
C354        H359   1.084       .  S
C355        C356   1.410       .  A
C356       Br357   1.920       .  S
C361        C362   1.403       .  A
C361        C366   1.399       .  A
C361        H368   1.083       .  S
C362        C363   1.410       .  A
C363        C364   1.399       .  A
C363       Br370   1.920       .  S
C364        C365   1.402       .  A
C364        H369   1.083       .  S
C365        C366   1.409       .  A
C366       Br367   1.919       .  S
C371        C372   1.404       .  A
C371        C376   1.399       .  A
C371        H378   1.084       .  S
C372        C373   1.411       .  A
C373        C374   1.398       .  A
C373       Br380   1.920       .  S
C374        C375   1.405       .  A
C374        H379   1.083       .  S
C375        C376   1.413       .  A
C376       Br377   1.920       .  S
