geometry optimzed in LAMMPS
_audit_creation_date              2020-11-30 
_audit_creation_method            'lammps2cif' 
_symmetry_space_group_name_H-M    'P1' 
_symmetry_Int_Tables_number       1 
_symmetry_cell_setting            triclinic 
loop_ 
_symmetry_equiv_pos_as_xyz 
  x,y,z 
_cell_length_a                    40.68624297 
_cell_length_b                    40.93745905156931 
_cell_length_c                    79.46266328628647 
_cell_angle_alpha                 89.95293853258465 
_cell_angle_beta                  90.08817357521029 
_cell_angle_gamma                 89.9849005471536 
loop_ 
_atom_site_label 
_atom_site_type_symbol 
_atom_site_fract_x 
_atom_site_fract_y 
_atom_site_fract_z 
_atom_site_charge 
N1          N  0.63230313  0.01040616  0.40001902    -0.27400
N2          N  0.62215287  0.99792544  0.38562962    -0.35200
C3          C  0.59280594  0.01116656  0.38171751     0.01000
C4          C  0.58418895  0.03320976  0.39429630     0.07000
C5          C  0.60999352  0.03181694  0.40568725    -0.06100
H6          H  0.57950545  0.00598106  0.37024144     0.07700
H7          H  0.61331822  0.04622672  0.41694733     0.08900
Cu8        Cu  0.65125413  0.96599500  0.37173556     0.44200
Cu9        Cu  0.67732073  0.00028157  0.41053846     0.42000
Cu10       Cu  0.73458243  0.94902426  0.38787855     0.43900
N11         N  0.68599552  0.93689022  0.35965153    -0.34700
N12         N  0.71618103  0.93103091  0.36514253    -0.29000
C13         C  0.73132632  0.91075847  0.35421895    -0.05100
C14         C  0.70954202  0.90345795  0.34133879     0.07100
C15         C  0.68115090  0.92041023  0.34524856     0.00900
H16         H  0.75581442  0.90098876  0.35591602     0.08600
H17         H  0.65821793  0.92009712  0.33833714     0.07700
N18         N  0.74486960  0.97031864  0.41117363    -0.36200
N19         N  0.72361879  0.98910277  0.41917120    -0.28400
C20         C  0.73714115  0.99993549  0.43351265    -0.03600
C21         C  0.76863255  0.98742291  0.43479083     0.05000
C22         C  0.77266725  0.96859865  0.42038313     0.03100
H23         H  0.72471449  0.01580352  0.44232049     0.08200
H24         H  0.79439751  0.95523662  0.41665375     0.07000
O25         O  0.69311903  0.86742445  0.28405803    -0.73000
O26         O  0.68605441  0.80121988  0.32195185    -0.74000
O27         O  0.68715245  0.87035809  0.31990397    -0.62600
O28         O  0.69066530  0.79828936  0.28636696    -0.71000
O29         O  0.74521507  0.79902018  0.28646878    -0.70600
O30         O  0.74110400  0.86736142  0.32373853    -0.61800
O31         O  0.74052052  0.79785988  0.32220164    -0.74300
O32         O  0.74719501  0.86835049  0.28774875    -0.73100
Cu33       Cu  0.68737893  0.83447577  0.30299424     1.04600
Cu34       Cu  0.74546613  0.83321826  0.30513543     1.04300
C35         C  0.72157114  0.87812605  0.27996065     0.93200
C36         C  0.71257897  0.78853268  0.32764678     0.92300
C37         C  0.71306666  0.87947011  0.32761813     0.84500
C38         C  0.71803354  0.78751124  0.28088953     0.90800
N39         N  0.77230693  0.63578348  0.39279383    -0.27400
N40         N  0.78144383  0.64655068  0.37787685    -0.35200
C41         C  0.80913040  0.63104553  0.37324374     0.01000
C42         C  0.81792811  0.60951669  0.38598634     0.07000
C43         C  0.79383248  0.61321973  0.39814872    -0.06100
H44         H  0.82199268  0.63550563  0.36156589     0.07700
H45         H  0.79168245  0.60027050  0.40996037     0.08900
Cu46       Cu  0.75557951  0.68264548  0.36539274     0.44200
Cu47       Cu  0.73077144  0.65229071  0.40488583     0.42000
Cu48       Cu  0.67822893  0.71196203  0.38398932     0.43900
N49         N  0.72761080  0.72068826  0.35596136    -0.34700
N50         N  0.69912751  0.73087850  0.36204989    -0.29000
C51         C  0.68846770  0.75623469  0.35262649    -0.05100
C52         C  0.71172508  0.76239446  0.34030669     0.07100
C53         C  0.73609893  0.73950707  0.34285432     0.00900
H54         H  0.66623441  0.76995940  0.35500454     0.08600
H55         H  0.75862097  0.73684497  0.33576058     0.07700
N56         N  0.66731075  0.69030236  0.40712867    -0.36200
N57         N  0.68689924  0.66893028  0.41456825    -0.28400
C58         C  0.67289210  0.65849862  0.42886311    -0.03600
C59         C  0.64281949  0.67388867  0.43065579     0.05000
C60         C  0.64019387  0.69409221  0.41665456     0.03100
H61         H  0.68376044  0.64052202  0.43715538     0.08200
H62         H  0.61961497  0.70953122  0.41330478     0.07000
N63         N  0.65266874  0.63264031  0.21893195    -0.27400
N64         N  0.63990088  0.64816057  0.23187332    -0.35200
C65         C  0.61003341  0.63542384  0.23513685     0.01000
C66         C  0.60391168  0.61061011  0.22355883     0.07000
C67         C  0.63168040  0.60977528  0.21351380    -0.06100
H68         H  0.59411208  0.64368118  0.24515127     0.07700
H69         H  0.63641420  0.59417799  0.20282349     0.08900
Cu70       Cu  0.66575402  0.68587423  0.24327048     0.44200
Cu71       Cu  0.69722950  0.64446727  0.20871957     0.42000
Cu72       Cu  0.74601007  0.71137580  0.22328351     0.43900
N73         N  0.69752587  0.72174315  0.25215478    -0.34700
N74         N  0.72613463  0.73067386  0.24560813    -0.29000
C75         C  0.73894647  0.75477397  0.25522490    -0.05100
C76         C  0.71716377  0.76137379  0.26818567     0.07100
C77         C  0.69134052  0.74006657  0.26577459     0.00900
H78         H  0.76168426  0.76743760  0.25256583     0.08600
H79         H  0.66923906  0.73829987  0.27327919     0.07700
N80         N  0.75741274  0.68467007  0.20146035    -0.36200
N81         N  0.73899287  0.65976569  0.19675597    -0.28400
C82         C  0.75129470  0.64632913  0.18277899    -0.03600
C83         C  0.77925669  0.66328960  0.17814903     0.05000
C84         C  0.78233779  0.68770794  0.19032113     0.03100
H85         H  0.74016652  0.62572496  0.17648088     0.08200
H86         H  0.80142630  0.70601344  0.19115497     0.07000
N87         N  0.81262347  0.98384347  0.20077230    -0.27400
N88         N  0.81936905  0.97738198  0.21667589    -0.35200
C89         C  0.84843813  0.99089147  0.22070124     0.01000
C90         C  0.86054242  0.00703206  0.20666491     0.07000
C91         C  0.83711931  0.00182353  0.19422962    -0.06100
H92         H  0.85880974  0.99077122  0.23324039     0.07700
H93         H  0.83698029  0.01160972  0.18158520     0.08900
Cu94       Cu  0.78637803  0.95433796  0.23252002     0.44200
Cu95       Cu  0.76804888  0.97200008  0.18980780     0.42000
Cu96       Cu  0.70307671  0.94064647  0.21749027     0.43900
N97         N  0.75029910  0.93094270  0.24636642    -0.34700
N98         N  0.71976749  0.92603024  0.24121063    -0.29000
C99         C  0.70391794  0.90792315  0.25285803    -0.05100
C100        C  0.72569198  0.90106251  0.26583250     0.07100
C101        C  0.75474826  0.91607494  0.26125840     0.00900
H102        H  0.67913073  0.89874678  0.25148214     0.08600
H103        H  0.77798601  0.91492894  0.26787456     0.07700
N104        N  0.69588801  0.95464781  0.19245095    -0.36200
N105        N  0.71974760  0.96492775  0.18247644    -0.28400
C106        C  0.70702375  0.97317241  0.16746000    -0.03600
C107        C  0.67338024  0.96815268  0.16786972     0.05000
C108        C  0.66725142  0.95625984  0.18395647     0.03100
H109        H  0.72115982  0.98385011  0.15733955     0.08200
H110        H  0.64363651  0.95005673  0.18930977     0.07000
C111        C  0.51198280  0.06804025  0.08666727    -0.10900
C112        C  0.49116263  0.08834274  0.09589984    -0.04800
C113        C  0.46751089  0.10813868  0.08812240    -0.10900
C114        C  0.46425049  0.10728774  0.07032051     0.10000
C115        C  0.48509459  0.08651347  0.06073808    -0.02700
C116        C  0.50917786  0.06700673  0.06893942     0.09800
C117        C  0.52940765  0.04656399  0.05924487    -0.12700
C118        C  0.52584599  0.04486321  0.04184774    -0.12700
C119        C  0.50159690  0.06316729  0.03346521     0.09800
C120        C  0.48147612  0.08476388  0.04293472    -0.02700
C121        C  0.44033453  0.12593797  0.06185833    -0.12800
C122        C  0.43725453  0.12472191  0.04438524    -0.12800
C123        C  0.45724786  0.10401457  0.03469347     0.10000
C124        C  0.45368166  0.10189902  0.01697436    -0.10900
C125        C  0.47378816  0.08050410  0.00789709    -0.04800
C126        C  0.49695111  0.06047056  0.01584355    -0.10900
H127        H  0.54805955  0.03141532  0.06504103     0.07300
H128        H  0.54240264  0.02902966  0.03501258     0.07300
H129        H  0.42346441  0.14146600  0.06865951     0.07500
H130        H  0.41880196  0.14004426  0.03854841     0.07500
H131        H  0.49400117  0.08927410  0.10947327     0.03900
H132        H  0.46980657  0.07786763  0.99446107     0.03900
N133        N  0.15133479  0.13496396  0.89332658    -0.27400
N134        N  0.14279060  0.14737116  0.87864429    -0.35200
C135        C  0.11410536  0.13426978  0.87372308     0.01000
C136        C  0.10400789  0.11253801  0.88601334     0.07000
C137        C  0.12819498  0.11368422  0.89829115    -0.06100
H138        H  0.10200619  0.13968230  0.86191719     0.07700
H139        H  0.12976776  0.09898061  0.90957207     0.08900
Cu140      Cu  0.17182609  0.17996001  0.86593338     0.44200
Cu141      Cu  0.19554525  0.14578161  0.90482171     0.42000
Cu142      Cu  0.25159103  0.20242296  0.88351737     0.43900
N143        N  0.20304402  0.21327871  0.85522052    -0.34700
N144        N  0.23233464  0.22159698  0.86105899    -0.29000
C145        C  0.24462503  0.24536352  0.85108219    -0.05100
C146        C  0.22159082  0.25227225  0.83866571     0.07100
C147        C  0.19570860  0.23149466  0.84172368     0.00900
H148        H  0.26761833  0.25792988  0.85327264     0.08600
H149        H  0.17260728  0.23042147  0.83497919     0.07700
N150        N  0.26153103  0.17975518  0.90668814    -0.36200
N151        N  0.24119745  0.15892157  0.91400374    -0.28400
C152        C  0.25471020  0.14798493  0.92837393    -0.03600
C153        C  0.28500319  0.16274497  0.93044347     0.05000
C154        C  0.28849951  0.18286255  0.91646445     0.03100
H155        H  0.24304000  0.13076553  0.93678774     0.08200
H156        H  0.30935028  0.19816104  0.91346130     0.07000
N157        N  0.30184269  0.48881581  0.90702781    -0.27400
N158        N  0.31149467  0.47746825  0.89231425    -0.35200
C159        C  0.34013556  0.49165806  0.88811143     0.01000
C160        C  0.34898652  0.51298157  0.90089246     0.07000
C161        C  0.32408622  0.51041025  0.91269684    -0.06100
H162        H  0.35299356  0.48738642  0.87641397     0.07700
H163        H  0.32136865  0.52443195  0.92414256     0.08900
Cu164      Cu  0.28287913  0.44577775  0.87836573     0.44200
Cu165      Cu  0.25701292  0.47685269  0.91745549     0.42000
Cu166      Cu  0.19991944  0.42586555  0.89350798     0.43900
N167        N  0.24908196  0.41794044  0.86526516    -0.34700
N168        N  0.21891074  0.41087942  0.87030562    -0.29000
C169        C  0.20408647  0.39284686  0.85826440    -0.05100
C170        C  0.22612330  0.38849164  0.84515347     0.07100
C171        C  0.25431061  0.40455669  0.85010501     0.00900
H172        H  0.17952048  0.38291596  0.85919602     0.08600
H173        H  0.27722164  0.40613597  0.84325601     0.07700
N174        N  0.18891221  0.44707160  0.91677212    -0.36200
N175        N  0.20991402  0.46560117  0.92515717    -0.28400
C176        C  0.19531021  0.47723576  0.93903588    -0.03600
C177        C  0.16341329  0.46558686  0.93960528     0.05000
C178        C  0.16026273  0.44634393  0.92528535     0.03100
H179        H  0.20714831  0.49340697  0.94792991     0.08200
H180        H  0.13842400  0.43373357  0.92102516     0.07000
O181        O  0.19027034  0.36551152  0.78928644    -0.73000
O182        O  0.19382079  0.28923095  0.82079722    -0.74000
O183        O  0.19465777  0.35772377  0.82518542    -0.62600
O184        O  0.18954804  0.29606834  0.78522481    -0.71000
O185        O  0.24406001  0.29391099  0.78547139    -0.70600
O186        O  0.24883039  0.36007299  0.82210524    -0.61800
O187        O  0.24835783  0.29134746  0.82105904    -0.74300
O188        O  0.24442887  0.36339027  0.78620150    -0.73100
Cu189      Cu  0.19010518  0.32728146  0.80514360     1.04600
Cu190      Cu  0.24828242  0.32728230  0.80359181     1.04300
C191        C  0.21660854  0.37594522  0.78238539     0.93200
C192        C  0.22145665  0.27881296  0.82624197     0.92300
C193        C  0.22279712  0.36806172  0.83003308     0.84500
C194        C  0.21650159  0.28434127  0.77957053     0.90800
N195        N  0.29509269  0.14740599  0.71210053    -0.27400
N196        N  0.30064341  0.15501197  0.72795575    -0.35200
C197        C  0.32797983  0.13951620  0.73321978     0.01000
C198        C  0.34022904  0.12128512  0.71989254     0.07000
C199        C  0.31866292  0.12705692  0.70670804    -0.06100
H200        H  0.33767156  0.14087170  0.74587872     0.07700
H201        H  0.31886400  0.11583597  0.69439403     0.08900
Cu202      Cu  0.26863356  0.18500072  0.74092438     0.44200
Cu203      Cu  0.25284817  0.16129170  0.69978923     0.42000
Cu204      Cu  0.18854652  0.20686445  0.72208629     0.43900
N205        N  0.23616401  0.21891661  0.75065223    -0.34700
N206        N  0.20696710  0.22691977  0.74451388    -0.29000
C207        C  0.19421966  0.25105326  0.75415241    -0.05100
C208        C  0.21694189  0.25866747  0.76661583     0.07100
C209        C  0.24295901  0.23779631  0.76395232     0.00900
H210        H  0.17100284  0.26311515  0.75179496     0.08600
H211        H  0.26570023  0.23680126  0.77101281     0.07700
N212        N  0.18232500  0.18466349  0.69847636    -0.36200
N213        N  0.20611846  0.16878151  0.69063844    -0.28400
C214        C  0.19468276  0.15659596  0.67610670    -0.03600
C215        C  0.16198962  0.16514451  0.67446212     0.05000
C216        C  0.15497391  0.18307596  0.68889441     0.03100
H217        H  0.20929318  0.14228806  0.66746433     0.08200
H218        H  0.13153104  0.19350871  0.69239237     0.07000
N219        N  0.13024243  0.49876498  0.70950825    -0.27400
N220        N  0.12418913  0.49230359  0.72546325    -0.35200
C221        C  0.09449765  0.50443930  0.72951453     0.01000
C222        C  0.08112756  0.51931788  0.71534682     0.07000
C223        C  0.10462898  0.51507110  0.70289680    -0.06100
H224        H  0.08382900  0.50301272  0.74194693     0.07700
H225        H  0.10402673  0.52453087  0.69018877     0.08900
Cu226      Cu  0.15793670  0.46809300  0.74056607     0.44200
Cu227      Cu  0.17497568  0.48852470  0.69850593     0.42000
Cu228      Cu  0.24015315  0.45072425  0.72388277     0.43900
N229        N  0.19248391  0.43886659  0.75251702    -0.34700
N230        N  0.22232275  0.43235805  0.74679391    -0.29000
C231        C  0.23649393  0.41016025  0.75710020    -0.05100
C232        C  0.21428739  0.40218617  0.76970092     0.07100
C233        C  0.18681295  0.42091535  0.76636769     0.00900
H234        H  0.26029256  0.39913189  0.75497736     0.08600
H235        H  0.16367747  0.42037788  0.77305799     0.07700
N236        N  0.24737039  0.47084833  0.69986382    -0.36200
N237        N  0.22329243  0.48410784  0.69096848    -0.28400
C238        C  0.23539918  0.49603947  0.67653937    -0.03600
C239        C  0.26881069  0.49009763  0.67608430     0.05000
C240        C  0.27559884  0.47384575  0.69106787     0.03100
H241        H  0.22075891  0.50838009  0.66710553     0.08200
H242        H  0.29939560  0.46563699  0.69545819     0.07000
C243        C  0.96586964  0.53843052  0.08734498    -0.10900
C244        C  0.94430081  0.56010816  0.09516968    -0.04800
C245        C  0.92664295  0.58352884  0.08609475    -0.10900
C246        C  0.93074408  0.58559988  0.06840785     0.10000
C247        C  0.95305117  0.56408088  0.06023305    -0.02700
C248        C  0.97037176  0.54014073  0.06971587     0.09800
C249        C  0.99212652  0.51900772  0.06138437    -0.12700
C250        C  0.99710200  0.52141920  0.04410781    -0.12700
C251        C  0.98114976  0.54557644  0.03452133     0.09800
C252        C  0.95846953  0.56682641  0.04259073    -0.02700
C253        C  0.91369595  0.60882086  0.05873081    -0.12800
C254        C  0.91866510  0.61121177  0.04139866    -0.12800
C255        C  0.94147123  0.59100371  0.03311014     0.10000
C256        C  0.94753910  0.59392372  0.01557760    -0.10900
C257        C  0.96999277  0.57269255  0.00791580    -0.04800
C258        C  0.98709120  0.54890917  0.01704727    -0.10900
H259        H  0.00573919  0.50048859  0.06816403     0.07300
H260        H  0.01370574  0.50409235  0.03835129     0.07300
H261        H  0.89643832  0.62550023  0.06450501     0.07500
H262        H  0.90439233  0.62915484  0.03457323     0.07500
H263        H  0.94077619  0.55835357  0.10867894     0.03900
H264        H  0.97529996  0.57562626  0.99462251     0.03900
O265        O  0.67444764  0.78516396  0.78562382    -0.73000
O266        O  0.74551779  0.79012942  0.82125349    -0.74000
O267        O  0.67596509  0.78726909  0.82154428    -0.62600
O268        O  0.74383884  0.78725072  0.78541354    -0.71000
O269        O  0.73979915  0.84107746  0.78277686    -0.70600
O270        O  0.67662414  0.84146347  0.82238370    -0.61800
O271        O  0.74597548  0.84412581  0.81862695    -0.74300
O272        O  0.67054598  0.83922911  0.78666973    -0.73100
Cu273      Cu  0.70999764  0.78556343  0.80351128     1.04600
Cu274      Cu  0.70814892  0.84340527  0.80258617     1.04300
C275        C  0.66130775  0.81184898  0.78063892     0.93200
C276        C  0.75712991  0.81806263  0.82534906     0.92300
C277        C  0.66622132  0.81407009  0.82803103     0.84500
C278        C  0.75186058  0.81372729  0.77799944     0.90800
N279        N  0.53887670  0.74287272  0.90459020    -0.27400
N280        N  0.55075037  0.73211414  0.89019742    -0.35200
C281        C  0.53789239  0.70255957  0.88690939     0.01000
C282        C  0.51669341  0.69423476  0.89990594     0.07000
C283        C  0.51812730  0.72051539  0.91092000    -0.06100
H284        H  0.54273968  0.68890298  0.87554596     0.07700
H285        H  0.50446550  0.72381435  0.92244500     0.08900
Cu286      Cu  0.58162434  0.75992518  0.87533356     0.44200
Cu287      Cu  0.54926105  0.78886521  0.91382049     0.42000
Cu288      Cu  0.59856901  0.84424493  0.88802603     0.43900
N289        N  0.61036097  0.79220998  0.86176520    -0.34700
N290        N  0.61625236  0.82295899  0.86591899    -0.29000
C291        C  0.63617784  0.83626385  0.85419539    -0.05100
C292        C  0.64320975  0.81256449  0.84227551     0.07100
C293        C  0.62646990  0.78506962  0.84751775     0.00900
H294        H  0.64581949  0.86086585  0.85467657     0.08600
H295        H  0.62648733  0.76129343  0.84157846     0.07700
N296        N  0.57747585  0.85705383  0.91106429    -0.36200
N297        N  0.55944041  0.83675647  0.92013191    -0.28400
C298        C  0.54851548  0.85228668  0.93389963    -0.03600
C299        C  0.56029159  0.88398053  0.93368672     0.05000
C300        C  0.57870614  0.88611221  0.91901882     0.03100
H301        H  0.53320688  0.84109207  0.94340670     0.08200
H302        H  0.59148257  0.90737271  0.91428156     0.07000
N303        N  0.91939579  0.88070044  0.88423185    -0.27400
N304        N  0.90115667  0.89487081  0.87260651    -0.35200
C305        C  0.91374136  0.92460270  0.86928614     0.01000
C306        C  0.94125470  0.92926371  0.87943652     0.07000
C307        C  0.94393991  0.90069383  0.88868236    -0.06100
H308        H  0.90330535  0.94155410  0.86031006     0.07700
H309        H  0.96176722  0.89484975  0.89831894     0.08900
Cu310      Cu  0.85999936  0.87185387  0.86267354     0.44200
Cu311      Cu  0.90846041  0.83638801  0.89482632     0.42000
Cu312      Cu  0.83931345  0.79025139  0.88056176     0.43900
N313        N  0.82335901  0.84098312  0.85374136    -0.34700
N314        N  0.81685688  0.81127350  0.85948101    -0.29000
C315        C  0.79272278  0.79809676  0.85002183    -0.05100
C316        C  0.78344124  0.82072776  0.83797069     0.07100
C317        C  0.80323088  0.84758961  0.84075427     0.00900
H318        H  0.78214935  0.77417881  0.85205638     0.08600
H319        H  0.80318035  0.87029101  0.83377006     0.07700
N320        N  0.86557562  0.77865833  0.90240115    -0.36200
N321        N  0.89114888  0.79606299  0.90728798    -0.28400
C322        C  0.90315033  0.78388145  0.92169459    -0.03600
C323        C  0.88442143  0.75711599  0.92631881     0.05000
C324        C  0.86066556  0.75458465  0.91371811     0.03100
H325        H  0.92406047  0.79409908  0.92822955     0.08200
H326        H  0.84138925  0.73650433  0.91271987     0.07000
N327        N  0.53524626  0.89571292  0.70884160    -0.27400
N328        N  0.54117006  0.89937823  0.72503248    -0.35200
C329        C  0.52473246  0.92559027  0.73073254     0.01000
C330        C  0.50725778  0.93904920  0.71743333     0.07000
C331        C  0.51459251  0.91935275  0.70371952    -0.06100
H332        H  0.52472155  0.93350401  0.74371495     0.07700
H333        H  0.50536752  0.92166780  0.69100655     0.08900
Cu334      Cu  0.56988731  0.86668399  0.73816166     0.44200
Cu335      Cu  0.55426006  0.85675735  0.69552406     0.42000
Cu336      Cu  0.59996269  0.79191437  0.71813182     0.43900
N337        N  0.60030504  0.83307960  0.74957857    -0.34700
N338        N  0.61148173  0.80577915  0.74276298    -0.29000
C339        C  0.63324652  0.79206891  0.75350825    -0.05100
C340        C  0.63587267  0.81205969  0.76753981     0.07100
C341        C  0.61465597  0.83764080  0.76456483     0.00900
H342        H  0.64804118  0.77080967  0.75069465     0.08600
H343        H  0.61148639  0.85924354  0.77223100     0.07700
N344        N  0.58365519  0.78859497  0.69322228    -0.36200
N345        N  0.56832744  0.81258684  0.68526214    -0.28400
C346        C  0.55912349  0.80232411  0.66996133    -0.03600
C347        C  0.56873471  0.77016294  0.66800615     0.05000
C348        C  0.58435917  0.76225451  0.68304796     0.03100
H349        H  0.54434434  0.81672989  0.66140680     0.08200
H350        H  0.59432034  0.73875698  0.68664324     0.07000
N351        N  0.87572324  0.73296701  0.70273602    -0.27400
N352        N  0.86576412  0.72474606  0.71793565    -0.35200
C353        C  0.87905255  0.69570901  0.72210906     0.01000
C354        C  0.89868722  0.68514952  0.70888258     0.07000
C355        C  0.89573485  0.70952967  0.69678355    -0.06100
H356        H  0.87603262  0.68412031  0.73424028     0.07700
H357        H  0.90811829  0.71089847  0.68478008     0.08900
Cu358      Cu  0.83722346  0.75611894  0.73230858     0.44200
Cu359      Cu  0.86397265  0.77773935  0.69211825     0.42000
Cu360      Cu  0.81655131  0.83839560  0.71622691     0.43900
N361        N  0.80834494  0.79010468  0.74484006    -0.34700
N362        N  0.80061821  0.81974721  0.73942784    -0.29000
C363        C  0.78022453  0.83375694  0.75074863    -0.05100
C364        C  0.77489170  0.81169731  0.76373652     0.07100
C365        C  0.79309572  0.78447277  0.75951230     0.00900
H366        H  0.76901872  0.85755363  0.74926848     0.08600
H367        H  0.79439586  0.76166999  0.76637708     0.07700
N368        N  0.83745768  0.84733304  0.69254134    -0.36200
N369        N  0.85415521  0.82496398  0.68411579    -0.28400
C370        C  0.86616244  0.83827378  0.66998043    -0.03600
C371        C  0.85697225  0.87082331  0.66927093     0.05000
C372        C  0.83848286  0.87563620  0.68379430     0.03100
H373        H  0.88132804  0.82511230  0.66112548     0.08200
H374        H  0.82781656  0.89834953  0.68808366     0.07000
N375        N  0.04556885  0.23703869  0.20345712    -0.27400
N376        N  0.05501372  0.23000250  0.21892598    -0.35200
C377        C  0.04441227  0.19994263  0.22298740     0.01000
C378        C  0.02747104  0.18725261  0.20933969     0.07000
C379        C  0.02881455  0.21151122  0.19714675    -0.06100
H380        H  0.04826704  0.18854753  0.23511228     0.07700
H381        H  0.01704269  0.21137713  0.18493538     0.08900
Cu382      Cu  0.08069876  0.26249526  0.23376436     0.44200
Cu383      Cu  0.05296528  0.28273115  0.19294700     0.42000
Cu384      Cu  0.09917038  0.34358016  0.21752563     0.43900
N385        N  0.10901501  0.29649000  0.24628505    -0.34700
N386        N  0.11610232  0.32604662  0.24061846    -0.29000
C387        C  0.13635762  0.34076737  0.25172009    -0.05100
C388        C  0.14230224  0.31920017  0.26483138     0.07100
C389        C  0.12466358  0.29146325  0.26092749     0.00900
H390        H  0.14715196  0.36467641  0.24997921     0.08600
H391        H  0.12408684  0.26879380  0.26793174     0.07700
N392        N  0.07483062  0.35355788  0.19497898    -0.36200
N393        N  0.05759823  0.33156305  0.18653323    -0.28400
C394        C  0.04254140  0.34619250  0.17351219    -0.03600
C395        C  0.05084653  0.37891174  0.17356016     0.05000
C396        C  0.07155977  0.38273994  0.18728101     0.03100
H397        H  0.02663252  0.33382145  0.16465220     0.08200
H398        H  0.08251412  0.40526159  0.19168506     0.07000
N399        N  0.39789795  0.40034610  0.20885379    -0.27400
N400        N  0.38531853  0.40919850  0.22343289    -0.35200
C401        C  0.39758554  0.43842685  0.22780704     0.01000
C402        C  0.41904231  0.44858608  0.21531624     0.07000
C403        C  0.41846422  0.42376917  0.20344015    -0.06100
H404        H  0.39199512  0.45073948  0.23949125     0.07700
H405        H  0.43339397  0.42182060  0.19223441     0.08900
Cu406      Cu  0.35388158  0.37965426  0.23693661     0.44200
Cu407      Cu  0.38947282  0.35475846  0.19872703     0.42000
Cu408      Cu  0.33868102  0.29640384  0.22268992     0.43900
N409        N  0.32092983  0.34826591  0.24824326    -0.34700
N410        N  0.31530966  0.31776296  0.24355119    -0.29000
C411        C  0.29196258  0.30506813  0.25372376    -0.05100
C412        C  0.28242834  0.32897275  0.26512113     0.07100
C413        C  0.30129609  0.35590277  0.26121355     0.00900
H414        H  0.28204565  0.28065177  0.25261661     0.08600
H415        H  0.30068825  0.37953409  0.26729608     0.07700
N416        N  0.36480818  0.28480635  0.20066931    -0.36200
N417        N  0.38287456  0.30634294  0.19238273    -0.28400
C418        C  0.39674317  0.29187513  0.17904399    -0.03600
C419        C  0.38705399  0.25954761  0.17862973     0.05000
C420        C  0.36662357  0.25588936  0.19252795     0.03100
H421        H  0.41235879  0.30436552  0.17011112     0.08200
H422        H  0.35418881  0.23383308  0.19649216     0.07000
O423        O  0.17673074  0.29651027  0.28574723    -0.73000
O424        O  0.24925705  0.30261564  0.31929862    -0.74000
O425        O  0.17990025  0.29897637  0.32171294    -0.62600
O426        O  0.24620855  0.30011905  0.28363304    -0.71000
O427        O  0.24595410  0.35431748  0.28435367    -0.70600
O428        O  0.17467490  0.35272182  0.31922211    -0.61800
O429        O  0.24434567  0.35662530  0.32011741    -0.74300
O430        O  0.17644195  0.35052647  0.28316689    -0.73100
Cu431      Cu  0.21305573  0.29766837  0.30264214     1.04600
Cu432      Cu  0.21015524  0.35547561  0.30168954     1.04300
C433        C  0.16604906  0.32240454  0.27864601     0.93200
C434        C  0.25794910  0.33027276  0.32520889     0.92300
C435        C  0.16677552  0.32586909  0.32637734     0.84500
C436        C  0.25696036  0.32757373  0.27828084     0.90800
N437        N  0.01585945  0.38723230  0.39290114    -0.27400
N438        N  0.03045044  0.39924256  0.37946280    -0.35200
C439        C  0.01581224  0.42754696  0.37520964     0.01000
C440        C  0.99065656  0.43351414  0.38660145     0.07000
C441        C  0.99156943  0.40732116  0.39764470    -0.06100
H442        H  0.02265417  0.44224834  0.36445588     0.07700
H443        H  0.97590885  0.40299885  0.40839308     0.08900
Cu444      Cu  0.06864316  0.37464316  0.36792848     0.44200
Cu445      Cu  0.02968100  0.34388531  0.40379659     0.42000
Cu446      Cu  0.09404318  0.29413213  0.38522582     0.43900
N447        N  0.10427396  0.34475052  0.35756147    -0.34700
N448        N  0.11322914  0.31555235  0.36313988    -0.29000
C449        C  0.13651232  0.30360757  0.35267589    -0.05100
C450        C  0.14244500  0.32656856  0.34014020     0.07100
C451        C  0.12164917  0.35220623  0.34373746     0.00900
H452        H  0.14876768  0.28036441  0.35429939     0.08600
H453        H  0.11927075  0.37482700  0.33678886     0.07700
N454        N  0.06928205  0.28193206  0.40768176    -0.36200
N455        N  0.04578195  0.30060256  0.41393767    -0.28400
C456        C  0.03408159  0.28724877  0.42810290    -0.03600
C457        C  0.05080787  0.25848865  0.43122912     0.05000
C458        C  0.07314612  0.25590389  0.41799427     0.03100
H459        H  0.01490489  0.29818154  0.43564258     0.08200
H460        H  0.09060126  0.23640252  0.41590516     0.07000
N461        N  0.39379325  0.26197690  0.39743279    -0.27400
N462        N  0.38431020  0.25370034  0.38214155    -0.35200
C463        C  0.39813602  0.22507433  0.37794801     0.01000
C464        C  0.41718447  0.21465507  0.39134706     0.07000
C465        C  0.41375238  0.23860533  0.40353883    -0.06100
H466        H  0.39481898  0.21300296  0.36595959     0.07700
H467        H  0.42598411  0.23970716  0.41562250     0.08900
Cu468      Cu  0.35401607  0.28267132  0.36778759     0.44200
Cu469      Cu  0.38120298  0.30645354  0.40794266     0.42000
Cu470      Cu  0.33286052  0.36418948  0.38206620     0.43900
N471        N  0.32205739  0.31332947  0.35544535    -0.34700
N472        N  0.31441622  0.34335360  0.36014714    -0.29000
C473        C  0.29119960  0.35510609  0.34961917    -0.05100
C474        C  0.28388908  0.33096067  0.33799249     0.07100
C475        C  0.30390887  0.30499957  0.34206176     0.00900
H476        H  0.27927913  0.37858710  0.35092871     0.08600
H477        H  0.30442559  0.28123647  0.33611540     0.07700
N478        N  0.35160259  0.37454115  0.40583847    -0.36200
N479        N  0.36888714  0.35357644  0.41494601    -0.28400
C480        C  0.37760973  0.36783505  0.42946344    -0.03600
C481        C  0.36515393  0.39925346  0.42966204     0.05000
C482        C  0.34865671  0.40266946  0.41449496     0.03100
H483        H  0.39194366  0.35599577  0.43919007     0.08200
H484        H  0.33601916  0.42418317  0.40991788     0.07000
C485        C  0.98211804  0.09846945  0.51991923    -0.10900
C486        C  0.95911283  0.07958832  0.51120055    -0.04800
C487        C  0.93871150  0.05720953  0.51944660    -0.10900
C488        C  0.94216496  0.05261303  0.53704982     0.10000
C489        C  0.96593442  0.07106439  0.54607139    -0.02700
C490        C  0.98563543  0.09442234  0.53751705     0.09800
C491        C  0.00848074  0.11287830  0.54674458    -0.12700
C492        C  0.01226810  0.10830320  0.56400072    -0.12700
C493        C  0.99387609  0.08457495  0.57266855     0.09800
C494        C  0.97003921  0.06613954  0.56368819    -0.02700
C495        C  0.92281712  0.02986267  0.54583951    -0.12800
C496        C  0.92626422  0.02562901  0.56313348    -0.12800
C497        C  0.95017705  0.04293151  0.57228245     0.10000
C498        C  0.95452215  0.03805582  0.58982738    -0.10900
C499        C  0.97842129  0.05620347  0.59836815    -0.04800
C500        C  0.99820378  0.07915944  0.59014099    -0.10900
H501        H  0.02383000  0.13096771  0.54068273     0.07300
H502        H  0.02980953  0.12367704  0.57045976     0.07300
H503        H  0.90485362  0.01487603  0.53944417     0.07500
H504        H  0.90990992  0.00850625  0.56921029     0.07500
H505        H  0.95605710  0.08344524  0.49777597     0.03900
H506        H  0.98220376  0.05186020  0.61170342     0.03900
C507        C  0.46987301  0.60940331  0.51462891    -0.10900
C508        C  0.44949453  0.58720747  0.50628410    -0.04800
C509        C  0.42729784  0.56728873  0.51497080    -0.10900
C510        C  0.42479830  0.56988780  0.53269745     0.10000
C511        C  0.44468819  0.59284141  0.54136334    -0.02700
C512        C  0.46715515  0.61281961  0.53230513     0.09800
C513        C  0.48598539  0.63592991  0.54112434    -0.12700
C514        C  0.48353307  0.63882265  0.55851444    -0.12700
C515        C  0.46207346  0.61878309  0.56774954     0.09800
C516        C  0.44232580  0.59564638  0.55915497    -0.02700
C517        C  0.40289225  0.55032994  0.54197456    -0.12800
C518        C  0.40132610  0.55238316  0.55945338    -0.12800
C519        C  0.42046713  0.57516343  0.56832842     0.10000
C520        C  0.41882053  0.57788810  0.58613090    -0.10900
C521        C  0.43841656  0.60112636  0.59427917    -0.04800
C522        C  0.45978358  0.62138898  0.58539403    -0.10900
H523        H  0.50258176  0.65227757  0.53463617     0.07300
H524        H  0.49866546  0.65699711  0.56467379     0.07300
H525        H  0.38668906  0.53312534  0.53583092     0.07500
H526        H  0.38486980  0.53586857  0.56589650     0.07500
H527        H  0.45226851  0.58405537  0.49280372     0.03900
H528        H  0.43691960  0.60367196  0.60785073     0.03900
C529        C  0.40297508  0.48531412  0.49721689    -0.10900
C530        C  0.38675204  0.49445680  0.48228084     0.06200
C531        C  0.38025946  0.52772809  0.47939236    -0.09700
C532        C  0.39162510  0.55137815  0.49066096    -0.11300
C533        C  0.40968167  0.54221421  0.50498150    -0.01100
C534        C  0.41481232  0.50896352  0.50829494    -0.10200
C535        C  0.37998575  0.46973863  0.46904145     0.06300
H536        H  0.36813821  0.53566121  0.46796492     0.08200
H537        H  0.38773423  0.57696701  0.48779745     0.11600
H538        H  0.42919145  0.50135381  0.51908960     0.11900
H539        H  0.40775198  0.45986186  0.50001242     0.08200
C540        C  0.40290960  0.44470483  0.46612493    -0.10900
C541        C  0.39784976  0.42195204  0.45338791    -0.10200
C542        C  0.36996173  0.42381214  0.44304690    -0.01100
C543        C  0.34708126  0.44898628  0.44571572    -0.11300
C544        C  0.35195371  0.47168284  0.45867768    -0.09700
H545        H  0.42531237  0.44306547  0.47344065     0.08200
H546        H  0.41627052  0.40325887  0.45142531     0.11900
H547        H  0.32525332  0.45083831  0.43796019     0.11600
H548        H  0.33375685  0.49059345  0.46063449     0.08200
C549        C  0.06235029  0.19140981  0.46405204    -0.10900
C550        C  0.03268602  0.19337556  0.47312881     0.06200
C551        C  0.00944056  0.21697908  0.46827552    -0.09700
C552        C  0.01552203  0.23792629  0.45478360    -0.11300
C553        C  0.04498176  0.23588983  0.44560449    -0.01100
C554        C  0.06838410  0.21238207  0.45040461    -0.10200
C555        C  0.02465505  0.16982428  0.48688141     0.06300
H556        H  0.98593883  0.21870359  0.47457574     0.08200
H557        H  0.99657446  0.25524269  0.45135802     0.11600
H558        H  0.09143435  0.21032596  0.44371093     0.11900
H559        H  0.08094316  0.17370552  0.46750486     0.08200
C560        C  0.03343489  0.13667415  0.48551302    -0.10900
C561        C  0.02126504  0.11366267  0.49695645    -0.10200
C562        C  0.00035197  0.12334677  0.51006372    -0.01100
C563        C  0.99309946  0.15657445  0.51208496    -0.11300
C564        C  0.00531094  0.17961536  0.50069189    -0.09700
H565        H  0.04801482  0.12813716  0.47502086     0.08200
H566        H  0.02686934  0.08804617  0.49512160     0.11900
H567        H  0.97674481  0.16447057  0.52202755     0.11600
H568        H  0.99862922  0.20499591  0.50237815     0.08200
C569        C  0.90385102  0.00066792  0.62497279    -0.10900
C570        C  0.90500113  0.96710744  0.62111893     0.06200
C571        C  0.92101360  0.95746312  0.60618381    -0.09700
C572        C  0.93654522  0.98043829  0.59585778    -0.11300
C573        C  0.93549520  0.01378913  0.59984093    -0.01100
C574        C  0.91879485  0.02367706  0.61442933    -0.10200
C575        C  0.89129133  0.94219374  0.63302310     0.06300
H576        H  0.92194271  0.93206067  0.60248273     0.08200
H577        H  0.94982980  0.97211577  0.58486563     0.11600
H578        H  0.91805741  0.04925694  0.61788962     0.11900
H579        H  0.89244567  0.00921709  0.63643836     0.08200
C580        C  0.86419836  0.94917765  0.64348946    -0.10900
C581        C  0.85279358  0.92610594  0.65519747    -0.10200
C582        C  0.86790056  0.89532807  0.65657967    -0.01100
C583        C  0.89449185  0.88821328  0.64591440    -0.11300
C584        C  0.90614149  0.91128905  0.63445438    -0.09700
H585        H  0.85163267  0.97241465  0.64263366     0.08200
H586        H  0.83208743  0.93236081  0.66309866     0.11900
H587        H  0.90722585  0.86508387  0.64668553     0.11600
H588        H  0.92756008  0.90502891  0.62708589     0.08200
C589        C  0.53418594  0.74160054  0.62628503    -0.10900
C590        C  0.53272413  0.70768573  0.62863235     0.06200
C591        C  0.54606066  0.69408871  0.64338683    -0.09700
C592        C  0.55913734  0.71421929  0.65593595    -0.11300
C593        C  0.55915783  0.74832479  0.65394321    -0.01100
C594        C  0.54740364  0.76168206  0.63875644    -0.10200
C595        C  0.51539452  0.68675591  0.61629630     0.06300
H596        H  0.54501556  0.66799408  0.64555386     0.08200
H597        H  0.56788663  0.70308552  0.66745740     0.11600
H598        H  0.54770472  0.78776742  0.63659414     0.11900
H599        H  0.52458427  0.75263501  0.61489681     0.08200
C600        C  0.48438853  0.69609045  0.61007042    -0.10900
C601        C  0.46658087  0.67510385  0.59963477    -0.10200
C602        C  0.47968384  0.64470807  0.59516246    -0.01100
C603        C  0.51094447  0.63565987  0.60090672    -0.11300
C604        C  0.52869216  0.65652914  0.61143614    -0.09700
H605        H  0.47340894  0.71907567  0.61378657     0.08200
H606        H  0.44232331  0.68220269  0.59534444     0.11900
H607        H  0.52121670  0.61215605  0.59753074     0.11600
H608        H  0.55262076  0.64891517  0.61595648     0.08200
C609        C  0.98789256  0.45964495  0.10953871    -0.10900
C610        C  0.00760973  0.47106035  0.12289045     0.06200
C611        C  0.01582323  0.50440230  0.12342430    -0.09700
C612        C  0.00356770  0.52595869  0.11129663    -0.11300
C613        C  0.98300713  0.51464094  0.09835915    -0.01100
C614        C  0.97554487  0.48127332  0.09745061    -0.10200
C615        C  0.01847144  0.44846733  0.13649766     0.06300
H616        H  0.03061631  0.51410363  0.13358935     0.08200
H617        H  0.00919525  0.55174482  0.11231443     0.11600
H618        H  0.95933871  0.47217277  0.08769623     0.11900
H619        H  0.98159159  0.43402773  0.10856528     0.08200
C620        C  0.99731749  0.42373308  0.14226708    -0.10900
C621        C  0.00772815  0.40158018  0.15452627    -0.10200
C622        C  0.03931854  0.40394790  0.16152511    -0.01100
C623        C  0.06007478  0.42940235  0.15635519    -0.11300
C624        C  0.04985094  0.45133075  0.14385678    -0.09700
H625        H  0.97264256  0.42143763  0.13729010     0.08200
H626        H  0.99101449  0.38253349  0.15854499     0.11900
H627        H  0.08460704  0.43161927  0.16153498     0.11600
H628        H  0.06682777  0.46997751  0.13966075     0.08200
C629        C  0.90644716  0.63382473  0.97803960    -0.10900
C630        C  0.91157383  0.66723015  0.98117629     0.06200
C631        C  0.92665625  0.67648553  0.99640727    -0.09700
C632        C  0.93718205  0.65281098  0.00797193    -0.11300
C633        C  0.93240229  0.61943820  0.00465927    -0.01100
C634        C  0.91671060  0.61026256  0.98963783    -0.10200
C635        C  0.90299128  0.69190589  0.96809435     0.06300
H636        H  0.93081253  0.70201110  0.99925995     0.08200
H637        H  0.94993522  0.66048611  0.01926719     0.11600
H638        H  0.91329028  0.58467069  0.98665406     0.11900
H639        H  0.89559159  0.62576620  0.96631171     0.08200
C640        C  0.92431919  0.71805098  0.96468882    -0.10900
C641        C  0.91787693  0.73952940  0.95140802    -0.10200
C642        C  0.88994542  0.73546108  0.94112453    -0.01100
C643        C  0.86804316  0.70994141  0.94488722    -0.11300
C644        C  0.87449760  0.68844587  0.95820367    -0.09700
H645        H  0.94668832  0.72123954  0.97189145     0.08200
H646        H  0.93545625  0.75877292  0.94903016     0.11900
H647        H  0.84608645  0.70621485  0.93745415     0.11600
H648        H  0.85726176  0.66887373  0.96067136     0.08200
C649        C  0.00705875  0.57084715  0.72733959    -0.10900
C650        C  0.99502721  0.58052725  0.71149423     0.06200
C651        C  0.01006826  0.56777713  0.69699425    -0.09700
C652        C  0.03735237  0.54715942  0.69827609    -0.11300
C653        C  0.05027170  0.53862094  0.71409477    -0.01100
C654        C  0.03431729  0.55009202  0.72862486    -0.10200
C655        C  0.96852612  0.60555142  0.71005901     0.06300
H656        H  0.00100022  0.57410962  0.68459729     0.08200
H657        H  0.04852484  0.53826566  0.68681178     0.11600
H658        H  0.04357330  0.54412614  0.74102108     0.11900
H659        H  0.99630362  0.58041971  0.73877301     0.08200
C660        C  0.94207109  0.60632024  0.72143285    -0.10900
C661        C  0.91879446  0.63155865  0.72075960    -0.10200
C662        C  0.92143542  0.65663040  0.70870355    -0.01100
C663        C  0.94724016  0.65513378  0.69698373    -0.11300
C664        C  0.97048978  0.63004507  0.69769167    -0.09700
H665        H  0.93950149  0.58754460  0.73094541     0.08200
H666        H  0.89898705  0.63158627  0.72982755     0.11900
H667        H  0.95035467  0.67397946  0.68758317     0.11600
H668        H  0.99077592  0.63058627  0.68889314     0.08200
C669        C  0.30435934  0.53662719  0.63918321    -0.10900
C670        C  0.33324125  0.51908487  0.63561779     0.06200
C671        C  0.34132523  0.49222336  0.64595491    -0.09700
C672        C  0.32087746  0.48310218  0.65936441    -0.11300
C673        C  0.29168886  0.50030376  0.66255325    -0.01100
C674        C  0.28380352  0.52723422  0.65235680    -0.10200
C675        C  0.35517929  0.52985578  0.62160399     0.06300
H676        H  0.36319762  0.47792940  0.64356849     0.08200
H677        H  0.32749681  0.46214324  0.66697189     0.11600
H678        H  0.26186514  0.54148086  0.65468651     0.11900
H679        H  0.29776850  0.55810310  0.63197794     0.08200
C680        C  0.34204132  0.54479848  0.60707502    -0.10900
C681        C  0.36264417  0.55906381  0.59505183    -0.10200
C682        C  0.39689188  0.55779677  0.59698041    -0.01100
C683        C  0.41010449  0.54115861  0.61091251    -0.11300
C684        C  0.38954980  0.52748174  0.62311599    -0.09700
H685        H  0.31573467  0.54639605  0.60520805     0.08200
H686        H  0.35180765  0.57221882  0.58459552     0.11900
H687        H  0.43647694  0.54013338  0.61275421     0.11600
H688        H  0.40070558  0.51656523  0.63413489     0.08200
C689        C  0.43869758  0.99756559  0.70588277    -0.10900
C690        C  0.44001145  0.02043895  0.71907093     0.06200
C691        C  0.46375907  0.01623066  0.73177254    -0.09700
C692        C  0.48559803  0.98983399  0.73126243    -0.11300
C693        C  0.48435759  0.96719675  0.71797772    -0.01100
C694        C  0.46069297  0.97143054  0.70529052    -0.10200
C695        C  0.41636666  0.04820335  0.71954543     0.06300
H696        H  0.46579278  0.03355885  0.74200319     0.08200
H697        H  0.50370985  0.98745344  0.74117494     0.11600
H698        H  0.45863927  0.95420633  0.69502480     0.11900
H699        H  0.42023377  0.99946568  0.69610808     0.08200
C700        C  0.40577089  0.06301096  0.70451492    -0.10900
C701        C  0.38171871  0.08729683  0.70472091    -0.10200
C702        C  0.36784767  0.09770151  0.71997205    -0.01100
C703        C  0.37940324  0.08404049  0.73509124    -0.11300
C704        C  0.40329947  0.05943531  0.73487916    -0.09700
H705        H  0.41594774  0.05572170  0.69251098     0.08200
H706        H  0.37388153  0.09777763  0.69286863     0.11900
H707        H  0.36912447  0.09140578  0.74705315     0.11600
H708        H  0.41063126  0.04843697  0.74669500     0.08200
C709        C  0.12503930  0.11904533  0.63756087    -0.10900
C710        C  0.09522773  0.13575179  0.63497669     0.06200
C711        C  0.08841958  0.16320615  0.64507571    -0.09700
C712        C  0.11008768  0.17281605  0.65782229    -0.11300
C713        C  0.13943620  0.15565585  0.66060604    -0.01100
C714        C  0.14693191  0.12899355  0.65012853    -0.10200
C715        C  0.07054483  0.12351772  0.62255215     0.06300
H716        H  0.06622578  0.17731262  0.64321117     0.08200
H717        H  0.10385456  0.19381095  0.66545407     0.11600
H718        H  0.16922405  0.11501971  0.65195560     0.11900
H719        H  0.13106215  0.09750338  0.63030477     0.08200
C720        C  0.08030829  0.10726868  0.60773648    -0.10900
C721        C  0.05688347  0.09354994  0.59691399    -0.10200
C722        C  0.02321568  0.09645976  0.60045797    -0.01100
C723        C  0.01339826  0.11333493  0.61494374    -0.11300
C724        C  0.03670595  0.12653944  0.62588989    -0.09700
H725        H  0.10604258  0.10479566  0.60456014     0.08200
H726        H  0.06502271  0.08013075  0.58594127     0.11900
H727        H  0.98756087  0.11548768  0.61802935     0.11600
H728        H  0.02805609  0.13806898  0.63729939     0.08200
C729        C  0.44844354  0.63696912  0.91361747    -0.10900
C730        C  0.45095224  0.61157672  0.90177552     0.06200
C731        C  0.47627498  0.61296789  0.88977401    -0.09700
C732        C  0.49792769  0.63945498  0.88934302    -0.11300
C733        C  0.49495692  0.66515836  0.90096953    -0.01100
C734        C  0.47024380  0.66329659  0.91327451    -0.10200
C735        C  0.42653294  0.58447735  0.90161966     0.06300
H736        H  0.47945415  0.59355407  0.88067983     0.08200
H737        H  0.51688385  0.63969778  0.87982594     0.11600
H738        H  0.46699310  0.68254349  0.92242713     0.11900
H739        H  0.42896995  0.63712018  0.92287949     0.08200
C740        C  0.41266202  0.57297608  0.91670909    -0.10900
C741        C  0.38793828  0.54932554  0.91646809    -0.10200
C742        C  0.37681016  0.53623800  0.90116344    -0.01100
C743        C  0.39146317  0.54672488  0.88611389    -0.11300
C744        C  0.41586739  0.57073897  0.88632439    -0.09700
H745        H  0.42079259  0.58232347  0.92875230     0.08200
H746        H  0.37749844  0.54133766  0.92829868     0.11900
H747        H  0.38323819  0.53732874  0.87409792     0.11600
H748        H  0.42552443  0.57929062  0.87442786     0.08200
C749        C  0.08581030  0.46310335  0.96621749    -0.10900
C750        C  0.08905074  0.49172235  0.97589913     0.06200
C751        C  0.11721522  0.51112474  0.97368229    -0.09700
C752        C  0.14135368  0.50235684  0.96207599    -0.11300
C753        C  0.13794307  0.47405357  0.95223021    -0.01100
C754        C  0.10994826  0.45443797  0.95446173    -0.10200
C755        C  0.06262397  0.50250233  0.98763129     0.06300
H756        H  0.12023766  0.53373515  0.98056830     0.08200
H757        H  0.16227970  0.51836960  0.96054219     0.11600
H758        H  0.10674969  0.43230959  0.94719335     0.11900
H759        H  0.06463162  0.44738665  0.96772837     0.08200
C760        C  0.02929013  0.49885199  0.98326990    -0.10900
C761        C  0.00462568  0.51254414  0.99329692    -0.10200
C762        C  0.01272500  0.53003649  0.00792065    -0.01100
C763        C  0.04586511  0.53274260  0.01262132    -0.11300
C764        C  0.07051162  0.51886102  0.00268801    -0.09700
H765        H  0.02228476  0.48680736  0.97168765     0.08200
H766        H  0.97922355  0.51048747  0.98933777     0.11900
H767        H  0.05273094  0.54655794  0.02369968     0.11600
H768        H  0.09585278  0.52167278  0.00659770     0.08200
C769        C  0.01051807  0.98551535  0.89276936    -0.10900
C770        C  0.00398170  0.01362548  0.88326071     0.06200
C771        C  0.97650867  0.01415890  0.87256983    -0.09700
C772        C  0.95594304  0.98689949  0.87137081    -0.11300
C773        C  0.96266035  0.95850177  0.88074662    -0.01100
C774        C  0.99019568  0.95825415  0.89149342    -0.10200
C775        C  0.02683773  0.04157745  0.88401470     0.06300
H776        H  0.97094605  0.03570321  0.86517049     0.08200
H777        H  0.93493380  0.98815647  0.86304643     0.11600
H778        H  0.99648933  0.93697147  0.89887812     0.11900
H779        H  0.03187580  0.98434105  0.90090775     0.08200
C780        C  0.03868344  0.05274228  0.89957973    -0.10900
C781        C  0.06298775  0.07672172  0.90023452    -0.10200
C782        C  0.07586439  0.08992021  0.88533303    -0.01100
C783        C  0.06301827  0.07975083  0.86977769    -0.11300
C784        C  0.03871568  0.05572640  0.86912749    -0.09700
H785        H  0.02953447  0.04245370  0.91123197     0.08200
H786        H  0.07208312  0.08452704  0.91239101     0.11900
H787        H  0.07268996  0.08928505  0.85808149     0.11600
H788        H  0.03019664  0.04722152  0.85697761     0.08200
C789        C  0.51802116  0.97691608  0.99853827    -0.10900
C790        C  0.53306122  0.98475719  0.98311558     0.06200
C791        C  0.53887248  0.01784896  0.97932779    -0.09700
C792        C  0.52868478  0.04246335  0.99037694    -0.11300
C793        C  0.51261179  0.03453618  0.00546751    -0.01100
C794        C  0.50765961  0.00151694  0.00949991    -0.10200
C795        C  0.54075816  0.95867374  0.97064227     0.06300
H796        H  0.54998378  0.02483508  0.96749462     0.08200
H797        H  0.53235180  0.06778743  0.98689514     0.11600
H798        H  0.49473550  0.99479529  0.02089362     0.11900
H799        H  0.51362124  0.95171774  0.00200595     0.08200
C800        C  0.56887691  0.96049528  0.96038552    -0.10900
C801        C  0.57520920  0.93639254  0.94830185    -0.10200
C802        C  0.55372500  0.90980725  0.94632174    -0.01100
C803        C  0.52574938  0.90791013  0.95661432    -0.11300
C804        C  0.51926517  0.93207694  0.96854702    -0.09700
H805        H  0.58615424  0.98041808  0.96178355     0.08200
H806        H  0.59713915  0.93835522  0.94067701     0.11900
H807        H  0.50839725  0.88804855  0.95525224     0.11600
H808        H  0.49696278  0.93022930  0.97589352     0.08200
C809        C  0.38398064  0.18778944  0.14823446    -0.10900
C810        C  0.41258798  0.19309762  0.13865588     0.06200
C811        C  0.43338585  0.21908263  0.14307131    -0.09700
C812        C  0.42538503  0.23989280  0.15632467    -0.11300
C813        C  0.39634932  0.23534184  0.16558375    -0.01100
C814        C  0.37595478  0.20872503  0.16160724    -0.10200
C815        C  0.42173190  0.17133441  0.12441356     0.06300
H816        H  0.45612628  0.22321796  0.13633215     0.08200
H817        H  0.44207928  0.25964774  0.15929890     0.11600
H818        H  0.35338049  0.20465258  0.16849472     0.11900
H819        H  0.36751563  0.16788690  0.14516772     0.08200
C820        C  0.41911019  0.13725527  0.12594833    -0.10900
C821        C  0.43209894  0.11676339  0.11353767    -0.10200
C822        C  0.44793153  0.12986426  0.09932355    -0.01100
C823        C  0.44916458  0.16392053  0.09739814    -0.11300
C824        C  0.43589841  0.18442064  0.10972127    -0.09700
H825        H  0.40862554  0.12641006  0.13714982     0.08200
H826        H  0.43114698  0.09056056  0.11539531     0.11900
H827        H  0.46175335  0.17467668  0.08675230     0.11600
H828        H  0.43783004  0.21060768  0.10805554     0.08200
C829        C  0.36995958  0.12062300  0.99870480    -0.10900
C830        C  0.37821937  0.13945123  0.98449321     0.06200
C831        C  0.41108099  0.14931810  0.98241118    -0.09700
C832        C  0.43537132  0.13891478  0.99369188    -0.11300
C833        C  0.42728150  0.11873150  0.00736632    -0.01100
C834        C  0.39427125  0.11025932  0.00998430    -0.10200
C835        C  0.35335112  0.14633694  0.97116810     0.06300
H836        H  0.41836205  0.16350170  0.97153665     0.08200
H837        H  0.46077887  0.14530554  0.99130707     0.11600
H838        H  0.38757045  0.09425374  0.02028121     0.11900
H839        H  0.34481662  0.11299260  0.00080134     0.08200
C840        C  0.33095978  0.12194800  0.96627935    -0.10900
C841        C  0.30871358  0.12744500  0.95316118    -0.10200
C842        C  0.30847590  0.15735039  0.94447445    -0.01100
C843        C  0.33070651  0.18183653  0.94934931    -0.11300
C844        C  0.35282952  0.17644075  0.96260612    -0.09700
H845        H  0.33117551  0.09822694  0.97231277     0.08200
H846        H  0.29218867  0.10792610  0.94956908     0.11900
H847        H  0.33079798  0.20525567  0.94301406     0.11600
H848        H  0.36953505  0.19583361  0.96616341     0.08200
C849        C  0.97933116  0.11535764  0.19230770    -0.10900
C850        C  0.96670138  0.10134205  0.20712149     0.06200
C851        C  0.97681151  0.11411879  0.22272082    -0.09700
C852        C  0.99768476  0.14119422  0.22345200    -0.11300
C853        C  0.00863647  0.15633508  0.20860803    -0.01100
C854        C  0.99986425  0.14267096  0.19304230    -0.10200
C855        C  0.94122842  0.07527424  0.20628218     0.06300
H856        H  0.96737878  0.10423567  0.23439230     0.08200
H857        H  0.00390174  0.15114241  0.23565880     0.11600
H858        H  0.00848855  0.15335101  0.18139174     0.11900
H859        H  0.97283824  0.10560278  0.18008894     0.08200
C860        C  0.91703090  0.07608593  0.19362843    -0.10900
C861        C  0.89154458  0.05327511  0.19343557    -0.10200
C862        C  0.88932464  0.02923290  0.20599985    -0.01100
C863        C  0.91389314  0.02785641  0.21844314    -0.11300
C864        C  0.93960435  0.05054792  0.21855741    -0.09700
H865        H  0.91699906  0.09514033  0.18417617     0.08200
H866        H  0.87292558  0.05538546  0.18376293     0.11900
H867        H  0.91317578  0.00939333  0.22819087     0.11600
H868        H  0.95808900  0.04882843  0.22833318     0.08200
C869        C  0.54771158  0.00785688  0.11781654    -0.10900
C870        C  0.58121209  0.01646466  0.11786494     0.06200
C871        C  0.59202844  0.04065861  0.10651932    -0.09700
C872        C  0.56975831  0.05647599  0.09581878    -0.11300
C873        C  0.53628281  0.04845332  0.09625799    -0.01100
C874        C  0.52547249  0.02387667  0.10722252    -0.10200
C875        C  0.60437021  0.00158624  0.13027957     0.06300
H876        H  0.61746995  0.04835921  0.10635971     0.08200
H877        H  0.57841531  0.07576737  0.08761191     0.11600
H878        H  0.49965044  0.01753855  0.10778615     0.11900
H879        H  0.53854134  0.98898018  0.12611541     0.08200
C880        C  0.59384974  0.99413515  0.14671349    -0.10900
C881        C  0.61594641  0.98216636  0.15872752    -0.10200
C882        C  0.64923316  0.97766374  0.15469618    -0.01100
C883        C  0.65960398  0.98417978  0.13814878    -0.11300
C884        C  0.63745145  0.99591512  0.12609087    -0.09700
H885        H  0.56874133  0.99864705  0.15053242     0.08200
H886        H  0.60707483  0.97764796  0.17134262     0.11900
H887        H  0.68492650  0.98047510  0.13448879     0.11600
H888        H  0.64633172  0.00066835  0.11348937     0.08200
C889        C  0.54698220  0.54298518  0.20897184    -0.10900
C890        C  0.51868570  0.54864326  0.21862576     0.06200
C891        C  0.51850177  0.57506685  0.22992806    -0.09700
C892        C  0.54607644  0.59525095  0.23157451    -0.11300
C893        C  0.57440987  0.58949341  0.22191909    -0.01100
C894        C  0.57440487  0.56312857  0.21057307    -0.10200
C895        C  0.49030071  0.52595199  0.21740614     0.06300
H896        H  0.49696384  0.58026735  0.23745229     0.08200
H897        H  0.54504630  0.61537499  0.24036621     0.11600
H898        H  0.59573337  0.55747975  0.20302196     0.11900
H899        H  0.54831709  0.52241051  0.20044789     0.08200
C900        C  0.48151932  0.51189036  0.20189019    -0.10900
C901        C  0.45747538  0.48759184  0.20109416    -0.10200
C902        C  0.44151824  0.47699774  0.21577584    -0.01100
C903        C  0.44894044  0.49237531  0.23112145    -0.11300
C904        C  0.47315428  0.51647183  0.23194098    -0.09700
H905        H  0.49367641  0.51924887  0.19038240     0.08200
H906        H  0.45183976  0.47672525  0.18901669     0.11900
H907        H  0.43723876  0.48478821  0.24269657     0.11600
H908        H  0.47948806  0.52653670  0.24411396     0.08200
C909        C  0.89614432  0.63678771  0.12146250    -0.04900
C910        C  0.86206805  0.63127190  0.12076245     0.06200
C911        C  0.84915891  0.61413853  0.10685164    -0.09700
C912        C  0.87001797  0.60076393  0.09465797    -0.11300
C913        C  0.90415110  0.60460072  0.09601867    -0.01100
C914        C  0.91692866  0.62354131  0.10923321    -0.10200
C915        C  0.84056299  0.64052842  0.13519803     0.06300
H916        H  0.82297424  0.60995891  0.10573609     0.08200
H917        H  0.85967718  0.58583116  0.08472987     0.11600
H918        H  0.94326506  0.62635427  0.11064534     0.11900
H919        H  0.90701451  0.64954076  0.13201695     0.08200
C920        C  0.84563637  0.66953330  0.14437619    -0.10900
C921        C  0.82591250  0.67708378  0.15834167    -0.10200
C922        C  0.80071439  0.65577321  0.16345092    -0.01100
C923        C  0.79597077  0.62670973  0.15429862    -0.11300
C924        C  0.81555701  0.61922157  0.14043972    -0.09700
H925        H  0.86467289  0.68654554  0.14068239     0.08200
H926        H  0.83031061  0.69966884  0.16503304     0.11900
H927        H  0.77739571  0.60919221  0.15787951     0.11600
H928        H  0.81152980  0.59621170  0.13405794     0.08200
C929        C  0.88912597  0.55619842  0.37212336    -0.10900
C930        C  0.89752229  0.54034551  0.38721792     0.06200
C931        C  0.88093684  0.54895226  0.40205382    -0.09700
C932        C  0.85561107  0.57190595  0.40169260    -0.11300
C933        C  0.84631892  0.58688018  0.38649045    -0.01100
C934        C  0.86380194  0.57926382  0.37176532    -0.10200
C935        C  0.92209858  0.51360622  0.38734751     0.06300
H936        H  0.88735117  0.53768019  0.41394904     0.08200
H937        H  0.84323655  0.57767682  0.41335565     0.11600
H938        H  0.85729907  0.59027168  0.35983521     0.11900
H939        H  0.90127131  0.54987374  0.36045773     0.08200
C940        C  0.91624595  0.48525770  0.39683680    -0.10900
C941        C  0.93854403  0.45942467  0.39660642    -0.10200
C942        C  0.96726894  0.46123517  0.38685496    -0.01100
C943        C  0.97322994  0.48962983  0.37738037    -0.11300
C944        C  0.95086960  0.51557750  0.37763824    -0.09700
H945        H  0.89397110  0.48268803  0.40416189     0.08200
H946        H  0.93280771  0.43782499  0.40387344     0.11900
H947        H  0.99524163  0.49197740  0.36985781     0.11600
H948        H  0.95618671  0.53727104  0.37032483     0.08200
C949        C  0.56907082  0.68388238  0.45952093    -0.10900
C950        C  0.57022183  0.65478477  0.46894313     0.06200
C951        C  0.59557435  0.63233944  0.46570525    -0.09700
C952        C  0.61922001  0.63879625  0.45344659    -0.11300
C953        C  0.61803702  0.66777054  0.44396632    -0.01100
C954        C  0.59271710  0.69028179  0.44714251    -0.10200
C955        C  0.54469018  0.64707238  0.48175016     0.06300
H956        H  0.59676823  0.60932405  0.47240179     0.08200
H957        H  0.63796836  0.62059832  0.45117096     0.11600
H958        H  0.59126917  0.71293796  0.44015003     0.11900
H959        H  0.55002856  0.70180532  0.46179685     0.08200
C960        C  0.55323604  0.63067050  0.49670124    -0.10900
C961        C  0.52898098  0.61998437  0.50785368    -0.10200
C962        C  0.49565553  0.62585555  0.50443633    -0.01100
C963        C  0.48709376  0.64346659  0.48989542    -0.11300
C964        C  0.51135667  0.65406175  0.47867793    -0.09700
H965        H  0.57870064  0.62535308  0.49958912     0.08200
H966        H  0.53614067  0.60596290  0.51882478     0.11900
H967        H  0.46148546  0.64789559  0.48690944     0.11600
H968        H  0.50387715  0.66632081  0.46722243     0.08200
C969        C  0.52745382  0.10177027  0.40792794    -0.10900
C970        C  0.50600907  0.10446030  0.39412254     0.06200
C971        C  0.50903982  0.08190915  0.38086565    -0.09700
C972        C  0.53375011  0.05814391  0.38110264    -0.11300
C973        C  0.55594628  0.05625746  0.39464906    -0.01100
C974        C  0.55190085  0.07788644  0.40823751    -0.10200
C975        C  0.48167410  0.13156594  0.39329922     0.06300
H976        H  0.49247177  0.08275744  0.37019766     0.08200
H977        H  0.53573436  0.04176112  0.37049277     0.11600
H978        H  0.56808448  0.07713362  0.41902914     0.11900
H979        H  0.52619363  0.11885994  0.41829041     0.08200
C980        C  0.46647526  0.14331298  0.40800355    -0.10900
C981        C  0.44543561  0.17025494  0.40736149    -0.10200
C982        C  0.43861281  0.18561269  0.39197146    -0.01100
C983        C  0.45301504  0.17348155  0.37720700    -0.11300
C984        C  0.47454009  0.14693684  0.37787591    -0.09700
H985        H  0.47082940  0.13171767  0.42004928     0.08200
H986        H  0.43430007  0.17893422  0.41889189     0.11900
H987        H  0.44847430  0.18515350  0.36519252     0.11600
H988        H  0.48628003  0.13908427  0.36635420     0.08200
C989        C  0.84327411  0.98087350  0.46339456    -0.10900
C990        C  0.83930135  0.00829861  0.47388385     0.06200
C991        C  0.81152171  0.02823790  0.47153358    -0.09700
C992        C  0.78853409  0.02114776  0.45901610    -0.11300
C993        C  0.79279372  0.99411735  0.44835351    -0.01100
C994        C  0.82037119  0.97396709  0.45071148    -0.10200
C995        C  0.86466815  0.01727251  0.48663228     0.06300
H996        H  0.80793552  0.05001021  0.47901695     0.08200
H997        H  0.76787754  0.03751732  0.45745717     0.11600
H998        H  0.82419215  0.95275195  0.44284600     0.11900
H999        H  0.86406637  0.96465485  0.46497873     0.08200
C1000       C  0.85572169  0.03293443  0.50172718    -0.10900
C1001       C  0.87972365  0.04490364  0.51271228    -0.10200
C1002       C  0.91320162  0.04062926  0.50912107    -0.01100
C1003       C  0.92222043  0.02382125  0.49444630    -0.11300
C1004       C  0.89826751  0.01234503  0.48330047    -0.09700
H1005       H  0.83013350  0.03664672  0.50490294     0.08200
H1006       H  0.87217229  0.05834262  0.52378733     0.11900
H1007       H  0.94792986  0.02062147  0.49131897     0.11600
H1008       H  0.90620604  0.00093232  0.47172306     0.08200
loop_ 
_geom_bond_atom_site_label_1 
_geom_bond_atom_site_label_2 
_geom_bond_distance 
_geom_bond_site_symmetry_2 
_ccdc_geom_bond_type 
N1            N2   1.319   1_545  A
N1            C5   1.340       .  A
N1           Cu9   2.054       .  S
N2            C3   1.347   1_565  A
N2           Cu8   2.082       .  S
C3            C4   1.392       .  A
C3            H6   1.081       .  S
C4            C5   1.386       .  A
C4          C973   1.487       .  S
C5            H7   1.080       .  S
Cu8          N11   2.084       .  S
Cu9          N19   2.055   1_545  S
Cu10         N12   2.089       .  S
Cu10         N18   2.089       .  S
N11          N12   1.324       .  A
N11          C15   1.343       .  A
N12          C13   1.351       .  A
C13          C14   1.386       .  A
C13          H16   1.082       .  S
C14          C15   1.383       .  A
C14          C37   1.475       .  S
C15          H17   1.082       .  S
N18          N19   1.321       .  A
N18          C22   1.348       .  A
N19          C20   1.341       .  A
C20          C21   1.383       .  A
C20          H23   1.081   1_565  S
C21          C22   1.391       .  A
C21         C993   1.483       .  S
C22          H24   1.081       .  S
O25         Cu33   2.034       .  S
O25          C35   1.280       .  A
O26         Cu33   2.030       .  S
O26          C36   1.279       .  A
O27         Cu33   1.992       .  S
O27          C37   1.275       .  A
O28         Cu33   1.990       .  S
O28          C38   1.275       .  A
O29         Cu34   2.040       .  S
O29          C38   1.281       .  A
O30         Cu34   2.043       .  S
O30          C37   1.282       .  A
O31         Cu34   1.993       .  S
O31          C36   1.275       .  A
O32         Cu34   1.995       .  S
O32          C35   1.276       .  A
Cu33        Cu34   2.370       .  S
C35         C100   1.473       .  S
C36          C52   1.469       .  S
C38          C76   1.472       .  S
N39          N40   1.318       .  A
N39          C43   1.341       .  A
N39         Cu47   2.059       .  S
N40          C41   1.345       .  A
N40         Cu46   2.066       .  S
C41          C42   1.388       .  A
C41          H44   1.081       .  S
C42          C43   1.386       .  A
C42         C933   1.481       .  S
C43          H45   1.081       .  S
Cu46         N49   2.068       .  S
Cu47         N57   2.061       .  S
Cu48         N50   2.089       .  S
Cu48         N56   2.089       .  S
N49          N50   1.324       .  A
N49          C53   1.341       .  A
N50          C51   1.350       .  A
C51          C52   1.386       .  A
C51          H54   1.082       .  S
C52          C53   1.379       .  A
C53          H55   1.082       .  S
N56          N57   1.322       .  A
N56          C60   1.348       .  A
N57          C58   1.341       .  A
C58          C59   1.384       .  A
C58          H61   1.081       .  S
C59          C60   1.390       .  A
C59         C953   1.484       .  S
C60          H62   1.082       .  S
N63          N64   1.317       .  A
N63          C67   1.338       .  A
N63         Cu71   2.046       .  S
N64          C65   1.348       .  A
N64         Cu70   2.076       .  S
C65          C66   1.393       .  A
C65          H68   1.081       .  S
C66          C67   1.385       .  A
C66         C893   1.485       .  S
C67          H69   1.081       .  S
Cu70         N73   2.080       .  S
Cu71         N81   2.046       .  S
Cu72         N74   2.105       .  S
Cu72         N80   2.103       .  S
N73          N74   1.327       .  A
N73          C77   1.341       .  A
N74          C75   1.353       .  A
C75          C76   1.386       .  A
C75          H78   1.082       .  S
C76          C77   1.379       .  A
C77          H79   1.082       .  S
N80          N81   1.319       .  A
N80          C84   1.353       .  A
N81          C82   1.338       .  A
C82          C83   1.383       .  A
C82          H85   1.080       .  S
C83          C84   1.397       .  A
C83         C922   1.491       .  S
C84          H86   1.081       .  S
N87          N88   1.319       .  A
N87          C91   1.344   1_565  A
N87         Cu95   2.069       .  S
N88          C89   1.344       .  A
N88         Cu94   2.069       .  S
C89          C90   1.387   1_565  A
C89          H92   1.081       .  S
C90          C91   1.388       .  A
C90         C862   1.484       .  S
C91          H93   1.081       .  S
Cu94         N97   2.070       .  S
Cu95        N105   2.069       .  S
Cu96         N98   2.089       .  S
Cu96        N104   2.090       .  S
N97          N98   1.323       .  A
N97         C101   1.342       .  A
N98          C99   1.350       .  A
C99         C100   1.387       .  A
C99         H102   1.082       .  S
C100        C101   1.382       .  A
C101        H103   1.082       .  S
N104        N105   1.323       .  A
N104        C108   1.347       .  A
N105        C106   1.343       .  A
C106        C107   1.385       .  A
C106        H109   1.081       .  S
C107        C108   1.390       .  A
C107        C882   1.486       .  S
C108        H110   1.082       .  S
C111        C112   1.396       .  A
C111        C116   1.414       .  A
C111        C873   1.482       .  S
C112        C113   1.401       .  A
C112        H131   1.085       .  S
C113        C114   1.421       .  A
C113        C822   1.490       .  S
C114        C115   1.423       .  A
C114        C121   1.407       .  A
C115        C116   1.421       .  A
C115        C120   1.424       .  A
C116        C117   1.405       .  A
C117        C118   1.392       .  A
C117        H127   1.082       .  S
C118        C119   1.405       .  A
C118        H128   1.082       .  S
C119        C120   1.421       .  A
C119        C126   1.417       .  A
C120        C123   1.421       .  A
C121        C122   1.395       .  A
C121        H129   1.081       .  S
C122        C123   1.406       .  A
C122        H130   1.082       .  S
C123        C124   1.418       .  A
C124        C125   1.400       .  A
C124        C833   1.486       .  S
C125        C126   1.399       .  A
C125        H132   1.085   1_554  S
C126        C793   1.489       .  S
N133        N134   1.318       .  A
N133        C137   1.342       .  A
N133       Cu141   2.064       .  S
N134        C135   1.342       .  A
N134       Cu140   2.049       .  S
C135        C136   1.383       .  A
C135        H138   1.082       .  S
C136        C137   1.386       .  A
C136        C782   1.474       .  S
C137        H139   1.081       .  S
Cu140       N143   2.050       .  S
Cu141       N151   2.066       .  S
Cu142       N144   2.099       .  S
Cu142       N150   2.100       .  S
N143        N144   1.323       .  A
N143        C147   1.339       .  A
N144        C145   1.351       .  A
C145        C146   1.389       .  A
C145        H148   1.082       .  S
C146        C147   1.376       .  A
C146        C192   1.467       .  S
C147        H149   1.082       .  S
N150        N151   1.323       .  A
N150        C154   1.350       .  A
N151        C152   1.343       .  A
C152        C153   1.382       .  A
C152        H155   1.082       .  S
C153        C154   1.390       .  A
C153        C842   1.483       .  S
C154        H156   1.081       .  S
N157        N158   1.319       .  A
N157        C161   1.343       .  A
N157       Cu165   2.063       .  S
N158        C159   1.345       .  A
N158       Cu164   2.065       .  S
C159        C160   1.387       .  A
C159        H162   1.082       .  S
C160        C161   1.386       .  A
C160        C742   1.480       .  S
C161        H163   1.082       .  S
Cu164       N167   2.067       .  S
Cu165       N175   2.065       .  S
Cu166       N168   2.093       .  S
Cu166       N174   2.092       .  S
N167        N168   1.324       .  A
N167        C171   1.341       .  A
N168        C169   1.351       .  A
C169        C170   1.387       .  A
C169        H172   1.082       .  S
C170        C171   1.379       .  A
C170        C193   1.471       .  S
C171        H173   1.082       .  S
N174        N175   1.322       .  A
N174        C178   1.349       .  A
N175        C176   1.341       .  A
C176        C177   1.384       .  A
C176        H179   1.081       .  S
C177        C178   1.390       .  A
C177        C753   1.485       .  S
C178        H180   1.082       .  S
O181       Cu189   2.008       .  S
O181        C191   1.278       .  A
O182       Cu189   1.998       .  S
O182        C192   1.277       .  A
O183       Cu189   2.031       .  S
O183        C193   1.280       .  A
O184       Cu189   2.035       .  S
O184        C194   1.279       .  A
O185       Cu190   1.993       .  S
O185        C194   1.277       .  A
O186       Cu190   1.992       .  S
O186        C193   1.276       .  A
O187       Cu190   2.022       .  S
O187        C192   1.278       .  A
O188       Cu190   2.029       .  S
O188        C191   1.279       .  A
Cu189      Cu190   2.370       .  S
C191        C232   1.475       .  S
C194        C208   1.472       .  S
N195        N196   1.317       .  A
N195        C199   1.341       .  A
N195       Cu203   2.056       .  S
N196        C197   1.346       .  A
N196       Cu202   2.067       .  S
C197        C198   1.389       .  A
C197        H200   1.081       .  S
C198        C199   1.386       .  A
C198        C702   1.481       .  S
C199        H201   1.081       .  S
Cu202       N205   2.067       .  S
Cu203       N213   2.057       .  S
Cu204       N206   2.100       .  S
Cu204       N212   2.100       .  S
N205        N206   1.324       .  A
N205        C209   1.338       .  A
N206        C207   1.354       .  A
C207        C208   1.389       .  A
C207        H210   1.082       .  S
C208        C209   1.377       .  A
C209        H211   1.082       .  S
N212        N213   1.323       .  A
N212        C216   1.349       .  A
N213        C214   1.341       .  A
C214        C215   1.381       .  A
C214        H217   1.082       .  S
C215        C216   1.392       .  A
C215        C713   1.484       .  S
C216        H218   1.082       .  S
N219        N220   1.319       .  A
N219        C223   1.343       .  A
N219       Cu227   2.063       .  S
N220        C221   1.346       .  A
N220       Cu226   2.074       .  S
C221        C222   1.390       .  A
C221        H224   1.081       .  S
C222        C223   1.388       .  A
C222        C653   1.486       .  S
C223        H225   1.081       .  S
Cu226       N229   2.074       .  S
Cu227       N237   2.064       .  S
Cu228       N230   2.100       .  S
Cu228       N236   2.099       .  S
N229        N230   1.324       .  A
N229        C233   1.343       .  A
N230        C231   1.351       .  A
C231        C232   1.388       .  A
C231        H234   1.082       .  S
C232        C233   1.381       .  A
C233        H235   1.082       .  S
N236        N237   1.323       .  A
N236        C240   1.351       .  A
N237        C238   1.340       .  A
C238        C239   1.381       .  A
C238        H241   1.082       .  S
C239        C240   1.391       .  A
C239        C673   1.483       .  S
C240        H242   1.082       .  S
C243        C244   1.395       .  A
C243        C248   1.415       .  A
C243        C613   1.482       .  S
C244        C245   1.397       .  A
C244        H263   1.086       .  S
C245        C246   1.418       .  A
C245        C913   1.485       .  S
C246        C247   1.423       .  A
C246        C253   1.405       .  A
C247        C248   1.422       .  A
C247        C252   1.424       .  A
C248        C249   1.404       .  A
C249        C250   1.391       .  A
C249        H259   1.082   1_655  S
C250        C251   1.406       .  A
C250        H260   1.082   1_655  S
C251        C252   1.422       .  A
C251        C258   1.416       .  A
C252        C255   1.422       .  A
C253        C254   1.396       .  A
C253        H261   1.082       .  S
C254        C255   1.408       .  A
C254        H262   1.081       .  S
C255        C256   1.420       .  A
C256        C257   1.401       .  A
C256        C633   1.490       .  S
C257        C258   1.398       .  A
C257        H264   1.085   1_554  S
C258        C762   1.488   1_655  S
O265       Cu273   2.026       .  S
O265        C275   1.278       .  A
O266       Cu273   2.026       .  S
O266        C276   1.280       .  A
O267       Cu273   1.995       .  S
O267        C277   1.276       .  A
O268       Cu273   1.994       .  S
O268        C278   1.276       .  A
O269       Cu274   2.038       .  S
O269        C278   1.280       .  A
O270       Cu274   2.033       .  S
O270        C277   1.280       .  A
O271       Cu274   1.997       .  S
O271        C276   1.276       .  A
O272       Cu274   1.991       .  S
O272        C275   1.276       .  A
Cu273      Cu274   2.370       .  S
C275        C340   1.467       .  S
C276        C316   1.470       .  S
C277        C292   1.471       .  S
C278        C364   1.474       .  S
N279        N280   1.318       .  A
N279        C283   1.343       .  A
N279       Cu287   2.065       .  S
N280        C281   1.344       .  A
N280       Cu286   2.067       .  S
C281        C282   1.389       .  A
C281        H284   1.081       .  S
C282        C283   1.389       .  A
C282        C733   1.486       .  S
C283        H285   1.081       .  S
Cu286       N289   2.068       .  S
Cu287       N297   2.066       .  S
Cu288       N290   2.090       .  S
Cu288       N296   2.090       .  S
N289        N290   1.323       .  A
N289        C293   1.341       .  A
N290        C291   1.350       .  A
C291        C292   1.387       .  A
C291        H294   1.082       .  S
C292        C293   1.380       .  A
C293        H295   1.082       .  S
N296        N297   1.323       .  A
N296        C300   1.348       .  A
N297        C298   1.342       .  A
C298        C299   1.383       .  A
C298        H301   1.082       .  S
C299        C300   1.389       .  A
C299        C802   1.483       .  S
C300        H302   1.082       .  S
N303        N304   1.318       .  A
N303        C307   1.339       .  A
N303       Cu311   2.049       .  S
N304        C305   1.347       .  A
N304       Cu310   2.077       .  S
C305        C306   1.392       .  A
C305        H308   1.081       .  S
C306        C307   1.385       .  A
C306        C773   1.484       .  S
C307        H309   1.081       .  S
Cu310       N313   2.079       .  S
Cu311       N321   2.050       .  S
Cu312       N314   2.091       .  S
Cu312       N320   2.091       .  S
N313        N314   1.325       .  A
N313        C317   1.344       .  A
N314        C315   1.349       .  A
C315        C316   1.384       .  A
C315        H318   1.082       .  S
C316        C317   1.381       .  A
C317        H319   1.082       .  S
N320        N321   1.319       .  A
N320        C324   1.349       .  A
N321        C322   1.340       .  A
C322        C323   1.385       .  A
C322        H325   1.081       .  S
C323        C324   1.395       .  A
C323        C642   1.489       .  S
C324        H326   1.081       .  S
N327        N328   1.317       .  A
N327        C331   1.344       .  A
N327       Cu335   2.065       .  S
N328        C329   1.344       .  A
N328       Cu334   2.059       .  S
C329        C330   1.387       .  A
C329        H332   1.082       .  S
C330        C331   1.389       .  A
C330        C693   1.482       .  S
C331        H333   1.081       .  S
Cu334       N337   2.059       .  S
Cu335       N345   2.065       .  S
Cu336       N338   2.091       .  S
Cu336       N344   2.091       .  S
N337        N338   1.323       .  A
N337        C341   1.339       .  A
N338        C339   1.351       .  A
C339        C340   1.388       .  A
C339        H342   1.082       .  S
C340        C341   1.377       .  A
C341        H343   1.082       .  S
N344        N345   1.323       .  A
N344        C348   1.349       .  A
N345        C346   1.340       .  A
C346        C347   1.382       .  A
C346        H349   1.081       .  S
C347        C348   1.391       .  A
C347        C593   1.483       .  S
C348        H350   1.082       .  S
N351        N352   1.318       .  A
N351        C355   1.345       .  A
N351       Cu359   2.073       .  S
N352        C353   1.347       .  A
N352       Cu358   2.076       .  S
C353        C354   1.390       .  A
C353        H356   1.081       .  S
C354        C355   1.390       .  A
C354        C662   1.490       .  S
C355        H357   1.081       .  S
Cu358       N361   2.077       .  S
Cu359       N369   2.073       .  S
Cu360       N362   2.098       .  S
Cu360       N368   2.099       .  S
N361        N362   1.325       .  A
N361        C365   1.341       .  A
N362        C363   1.353       .  A
C363        C364   1.388       .  A
C363        H366   1.082       .  S
C364        C365   1.380       .  A
C365        H367   1.082       .  S
N368        N369   1.323       .  A
N368        C372   1.351       .  A
N369        C370   1.341       .  A
C370        C371   1.385       .  A
C370        H373   1.081       .  S
C371        C372   1.393       .  A
C371        C582   1.490       .  S
C372        H374   1.082       .  S
N375        N376   1.319       .  A
N375        C379   1.345       .  A
N375       Cu383   2.070       .  S
N376        C377   1.343       .  A
N376       Cu382   2.062       .  S
C377        C378   1.386       .  A
C377        H380   1.081       .  S
C378        C379   1.388       .  A
C378        C853   1.481       .  S
C379        H381   1.081       .  S
Cu382       N385   2.062       .  S
Cu383       N393   2.071       .  S
Cu384       N386   2.086       .  S
Cu384       N392   2.086       .  S
N385        N386   1.323       .  A
N385        C389   1.341       .  A
N386        C387   1.349       .  A
C387        C388   1.386       .  A
C387        H390   1.082       .  S
C388        C389   1.379       .  A
C388        C433   1.467       .  S
C389        H391   1.082       .  S
N392        N393   1.324       .  A
N392        C396   1.348       .  A
N393        C394   1.342       .  A
C394        C395   1.382       .  A
C394        H397   1.082       .  S
C395        C396   1.386       .  A
C395        C622   1.477       .  S
C396        H398   1.082       .  S
N399        N400   1.318       .  A
N399        C403   1.344       .  A
N399       Cu407   2.062       .  S
N400        C401   1.342       .  A
N400       Cu406   2.062       .  S
C401        C402   1.387       .  A
C401        H404   1.081       .  S
C402        C403   1.387       .  A
C402        C902   1.480       .  S
C403        H405   1.082       .  S
Cu406       N409   2.064       .  S
Cu407       N417   2.063       .  S
Cu408       N410   2.103       .  S
Cu408       N416   2.103       .  S
N409        N410   1.323       .  A
N409        C413   1.342       .  A
N410        C411   1.352       .  A
C411        C412   1.389       .  A
C411        H414   1.082       .  S
C412        C413   1.379       .  A
C412        C436   1.474       .  S
C413        H415   1.082       .  S
N416        N417   1.324       .  A
N416        C420   1.352       .  A
N417        C418   1.340       .  A
C418        C419   1.381       .  A
C418        H421   1.082       .  S
C419        C420   1.391       .  A
C419        C813   1.484       .  S
C420        H422   1.082       .  S
O423       Cu431   1.996       .  S
O423        C433   1.276       .  A
O424       Cu431   1.989       .  S
O424        C434   1.276       .  A
O425       Cu431   2.031       .  S
O425        C435   1.279       .  A
O426       Cu431   2.029       .  S
O426        C436   1.279       .  A
O427       Cu432   2.007       .  S
O427        C436   1.278       .  A
O428       Cu432   2.011       .  S
O428        C435   1.279       .  A
O429       Cu432   2.019       .  S
O429        C434   1.278       .  A
O430       Cu432   2.021       .  S
O430        C433   1.278       .  A
Cu431      Cu432   2.371       .  S
C434        C474   1.464       .  S
C435        C450   1.477       .  S
N437        N438   1.317       .  A
N437        C441   1.340   1_455  A
N437       Cu445   2.052       .  S
N438        C439   1.345       .  A
N438       Cu444   2.067       .  S
C439        C440   1.389   1_455  A
C439        H442   1.082       .  S
C440        C441   1.385       .  A
C440        C942   1.481       .  S
C441        H443   1.081       .  S
Cu444       N447   2.069       .  S
Cu445       N455   2.053       .  S
Cu446       N448   2.112       .  S
Cu446       N454   2.110       .  S
N447        N448   1.325       .  A
N447        C451   1.342       .  A
N448        C449   1.353       .  A
C449        C450   1.390       .  A
C449        H452   1.082       .  S
C450        C451   1.378       .  A
C451        H453   1.082       .  S
N454        N455   1.322       .  A
N454        C458   1.353       .  A
N455        C456   1.339       .  A
C456        C457   1.382       .  A
C456        H459   1.082       .  S
C457        C458   1.395       .  A
C457        C553   1.489       .  S
C458        H460   1.081       .  S
N461        N462   1.319       .  A
N461        C465   1.345       .  A
N461       Cu469   2.068       .  S
N462        C463   1.342       .  A
N462       Cu468   2.054       .  S
C463        C464   1.383       .  A
C463        H466   1.082       .  S
C464        C465   1.386       .  A
C464        C982   1.475       .  S
C465        H467   1.082       .  S
Cu468       N471   2.055       .  S
Cu469       N479   2.070       .  S
Cu470       N472   2.079       .  S
Cu470       N478   2.080       .  S
N471        N472   1.322       .  A
N471        C475   1.338       .  A
N472        C473   1.349       .  A
C473        C474   1.386       .  A
C473        H476   1.082       .  S
C474        C475   1.377       .  A
C475        H477   1.082       .  S
N478        N479   1.324       .  A
N478        C482   1.347       .  A
N479        C480   1.341       .  A
C480        C481   1.382       .  A
C480        H483   1.082       .  S
C481        C482   1.386       .  A
C481        C542   1.477       .  S
C482        H484   1.082       .  S
C485        C486   1.397       .  A
C485        C490   1.415       .  A
C485        C562   1.484   1_655  S
C486        C487   1.400       .  A
C486        H505   1.085       .  S
C487        C488   1.418       .  A
C487       C1002   1.487       .  S
C488        C489   1.421       .  A
C488        C495   1.406       .  A
C489        C490   1.421       .  A
C489        C494   1.424       .  A
C490        C491   1.404   1_655  A
C491        C492   1.392       .  A
C491        H501   1.082       .  S
C492        C493   1.407   1_455  A
C492        H502   1.081       .  S
C493        C494   1.421       .  A
C493        C500   1.417       .  A
C494        C497   1.422       .  A
C495        C496   1.392       .  A
C495        H503   1.081       .  S
C496        C497   1.406       .  A
C496        H504   1.081       .  S
C497        C498   1.419       .  A
C498        C499   1.399       .  A
C498        C573   1.490       .  S
C499        C500   1.400       .  A
C499        H506   1.085       .  S
C500        C722   1.486   1_655  S
C507        C508   1.397       .  A
C507        C512   1.416       .  A
C507        C962   1.487       .  S
C508        C509   1.399       .  A
C508        H527   1.085       .  S
C509        C510   1.417       .  A
C509        C533   1.482       .  S
C510        C511   1.418       .  A
C510        C517   1.407       .  A
C511        C512   1.423       .  A
C511        C516   1.422       .  A
C512        C513   1.405       .  A
C513        C514   1.391       .  A
C513        H523   1.082       .  S
C514        C515   1.405       .  A
C514        H524   1.083       .  S
C515        C516   1.417       .  A
C515        C522   1.409       .  A
C516        C519   1.424       .  A
C517        C518   1.393       .  A
C517        H525   1.081       .  S
C518        C519   1.405       .  A
C518        H526   1.081       .  S
C519        C520   1.421       .  A
C520        C521   1.400       .  A
C520        C682   1.489       .  S
C521        C522   1.394       .  A
C521        H528   1.085       .  S
C522        C602   1.473       .  S
C529        C530   1.408       .  A
C529        C534   1.394       .  A
C529        H539   1.083       .  S
C530        C531   1.406       .  A
C530        C535   1.486       .  S
C531        C532   1.398       .  A
C531        H536   1.082       .  S
C532        C533   1.404       .  A
C532        H537   1.083       .  S
C533        C534   1.402       .  A
C534        H538   1.083       .  S
C535        C540   1.405       .  A
C535        C544   1.408       .  A
C540        C541   1.391       .  A
C540        H545   1.082       .  S
C541        C542   1.402       .  A
C541        H546   1.083       .  S
C542        C543   1.405       .  A
C543        C544   1.402       .  A
C543        H547   1.083       .  S
C544        H548   1.083       .  S
C549        C550   1.409       .  A
C549        C554   1.405       .  A
C549        H559   1.082       .  S
C550        C551   1.405       .  A
C550        C555   1.493       .  S
C551        C552   1.395       .  A
C551        H556   1.082   1_455  S
C552        C553   1.407       .  A
C552        H557   1.082   1_455  S
C553        C554   1.406       .  A
C554        H558   1.082       .  S
C555        C560   1.408       .  A
C555        C564   1.410       .  A
C560        C561   1.400       .  A
C560        H565   1.082       .  S
C561        C562   1.403       .  A
C561        H566   1.083       .  S
C562        C563   1.401   1_455  A
C563        C564   1.399   1_655  A
C563        H567   1.083       .  S
C564        H568   1.082   1_455  S
C569        C570   1.409   1_545  A
C569        C574   1.400       .  A
C569        H579   1.081       .  S
C570        C571   1.411       .  A
C570        C575   1.499       .  S
C571        C572   1.399       .  A
C571        H576   1.082       .  S
C572        C573   1.402   1_565  A
C572        H577   1.083       .  S
C573        C574   1.404       .  A
C574        H578   1.083       .  S
C575        C580   1.411       .  A
C575        C584   1.406       .  A
C580        C581   1.405       .  A
C580        H585   1.082       .  S
C581        C582   1.406       .  A
C581        H586   1.082       .  S
C582        C583   1.406       .  A
C583        C584   1.395       .  A
C583        H587   1.081       .  S
C584        H588   1.081       .  S
C589        C590   1.402       .  A
C589        C594   1.395       .  A
C589        H599   1.083       .  S
C590        C591   1.406       .  A
C590        C595   1.480       .  S
C591        C592   1.399       .  A
C591        H596   1.083       .  S
C592        C593   1.405       .  A
C592        H597   1.082       .  S
C593        C594   1.407       .  A
C594        H598   1.082       .  S
C595        C600   1.407       .  A
C595        C604   1.405       .  A
C600        C601   1.397       .  A
C600        H605   1.083       .  S
C601        C602   1.400       .  A
C601        H606   1.083       .  S
C602        C603   1.400       .  A
C603        C604   1.397       .  A
C603        H607   1.083       .  S
C604        H608   1.083       .  S
C609        C610   1.409   1_655  A
C609        C614   1.399       .  A
C609        H619   1.082       .  S
C610        C611   1.406       .  A
C610        C615   1.489       .  S
C611        C612   1.397       .  A
C611        H616   1.082       .  S
C612        C613   1.403   1_455  A
C612        H617   1.083       .  S
C613        C614   1.401       .  A
C614        H618   1.083       .  S
C615        C620   1.406   1_455  A
C615        C624   1.408       .  A
C620        C621   1.396   1_655  A
C620        H625   1.083       .  S
C621        C622   1.403       .  A
C621        H626   1.083   1_455  S
C622        C623   1.403       .  A
C623        C624   1.401       .  A
C623        H627   1.083       .  S
C624        H628   1.082       .  S
C629        C630   1.406       .  A
C629        C634   1.397       .  A
C629        H639   1.082       .  S
C630        C631   1.408       .  A
C630        C635   1.490       .  S
C631        C632   1.402   1_556  A
C631        H636   1.083       .  S
C632        C633   1.405       .  A
C632        H637   1.083       .  S
C633        C634   1.404   1_554  A
C634        H638   1.083       .  S
C635        C640   1.404       .  A
C635        C644   1.407       .  A
C640        C641   1.398       .  A
C640        H645   1.082       .  S
C641        C642   1.409       .  A
C641        H646   1.081       .  S
C642        C643   1.406       .  A
C643        C644   1.400       .  A
C643        H647   1.081       .  S
C644        H648   1.083       .  S
C649        C650   1.407   1_455  A
C649        C654   1.400       .  A
C649        H659   1.083   1_455  S
C650        C651   1.406   1_655  A
C650        C655   1.491       .  S
C651        C652   1.398       .  A
C651        H656   1.083       .  S
C652        C653   1.406       .  A
C652        H657   1.082       .  S
C653        C654   1.406       .  A
C654        H658   1.082       .  S
C655        C660   1.407       .  A
C655        C664   1.406       .  A
C660        C661   1.402       .  A
C660        H665   1.083       .  S
C661        C662   1.408       .  A
C661        H666   1.082       .  S
C662        C663   1.406       .  A
C663        C664   1.397       .  A
C663        H667   1.081       .  S
C664        H668   1.083       .  S
C669        C670   1.406       .  A
C669        C674   1.395       .  A
C669        H679   1.082       .  S
C670        C671   1.411       .  A
C670        C675   1.495       .  S
C671        C672   1.403       .  A
C671        H676   1.082       .  S
C672        C673   1.404       .  A
C672        H677   1.083       .  S
C673        C674   1.404       .  A
C674        H678   1.082       .  S
C675        C680   1.411       .  A
C675        C684   1.407       .  A
C680        C681   1.399       .  A
C680        H685   1.082       .  S
C681        C682   1.403       .  A
C681        H686   1.083       .  S
C682        C683   1.405       .  A
C683        C684   1.398       .  A
C683        H687   1.084       .  S
C684        H688   1.082       .  S
C689        C690   1.407   1_565  A
C689        C694   1.396       .  A
C689        H699   1.082       .  S
C690        C691   1.407       .  A
C690        C695   1.489       .  S
C691        C692   1.399   1_545  A
C691        H696   1.082       .  S
C692        C693   1.406       .  A
C692        H697   1.082       .  S
C693        C694   1.404       .  A
C694        H698   1.082       .  S
C695        C700   1.406       .  A
C695        C704   1.408       .  A
C700        C701   1.395       .  A
C700        H705   1.083       .  S
C701        C702   1.404       .  A
C701        H706   1.082       .  S
C702        C703   1.405       .  A
C703        C704   1.400       .  A
C703        H707   1.082       .  S
C704        H708   1.082       .  S
C709        C710   1.407       .  A
C709        C714   1.398       .  A
C709        H719   1.082       .  S
C710        C711   1.409       .  A
C710        C715   1.494       .  S
C711        C712   1.399       .  A
C711        H716   1.082       .  S
C712        C713   1.402       .  A
C712        H717   1.083       .  S
C713        C714   1.407       .  A
C714        H718   1.082       .  S
C715        C720   1.410       .  A
C715        C724   1.408       .  A
C720        C721   1.401       .  A
C720        H725   1.082       .  S
C721        C722   1.404       .  A
C721        H726   1.083       .  S
C722        C723   1.402       .  A
C723        C724   1.395       .  A
C723        H727   1.083   1_455  S
C724        H728   1.082       .  S
C729        C730   1.407       .  A
C729        C734   1.396       .  A
C729        H739   1.082       .  S
C730        C731   1.406       .  A
C730        C735   1.489       .  S
C731        C732   1.398       .  A
C731        H736   1.082       .  S
C732        C733   1.406       .  A
C732        H737   1.081       .  S
C733        C734   1.406       .  A
C734        H738   1.081       .  S
C735        C740   1.407       .  A
C735        C744   1.408       .  A
C740        C741   1.396       .  A
C740        H745   1.082       .  S
C741        C742   1.404       .  A
C741        H746   1.083       .  S
C742        C743   1.404       .  A
C743        C744   1.398       .  A
C743        H747   1.082       .  S
C744        H748   1.082       .  S
C749        C750   1.408       .  A
C749        C754   1.402       .  A
C749        H759   1.082       .  S
C750        C751   1.406       .  A
C750        C755   1.491       .  S
C751        C752   1.395       .  A
C751        H756   1.083       .  S
C752        C753   1.405       .  A
C752        H757   1.082       .  S
C753        C754   1.405       .  A
C754        H758   1.083       .  S
C755        C760   1.407       .  A
C755        C764   1.408   1_556  A
C760        C761   1.400       .  A
C760        H765   1.082       .  S
C761        C762   1.404   1_556  A
C761        H766   1.083   1_455  S
C762        C763   1.403       .  A
C763        C764   1.398       .  A
C763        H767   1.083       .  S
C764        H768   1.083       .  S
C769        C770   1.401   1_565  A
C769        C774   1.393   1_455  A
C769        H779   1.083       .  S
C770        C771   1.403   1_455  A
C770        C775   1.476       .  S
C771        C772   1.398   1_545  A
C771        H776   1.083       .  S
C772        C773   1.407       .  A
C772        H777   1.081       .  S
C773        C774   1.408       .  A
C774        H778   1.081       .  S
C775        C780   1.404       .  A
C775        C784   1.403       .  A
C780        C781   1.394       .  A
C780        H785   1.083       .  S
C781        C782   1.403       .  A
C781        H786   1.082       .  S
C782        C783   1.405       .  A
C783        C784   1.396       .  A
C783        H787   1.082       .  S
C784        H788   1.083       .  S
C789        C790   1.408       .  A
C789        C794   1.398   1_566  A
C789        H799   1.083   1_556  S
C790        C791   1.408   1_565  A
C790        C795   1.491       .  S
C791        C792   1.400       .  A
C791        H796   1.082       .  S
C792        C793   1.405   1_556  A
C792        H797   1.083       .  S
C793        C794   1.404       .  A
C794        H798   1.083   1_545  S
C795        C800   1.408       .  A
C795        C804   1.407       .  A
C800        C801   1.401       .  A
C800        H805   1.083       .  S
C801        C802   1.405       .  A
C801        H806   1.082       .  S
C802        C803   1.405       .  A
C803        C804   1.396       .  A
C803        H807   1.082       .  S
C804        H808   1.082       .  S
C809        C810   1.408       .  A
C809        C814   1.405       .  A
C809        H819   1.083       .  S
C810        C811   1.404       .  A
C810        C815   1.489       .  S
C811        C812   1.394       .  A
C811        H816   1.083       .  S
C812        C813   1.405       .  A
C812        H817   1.082       .  S
C813        C814   1.406       .  A
C814        H818   1.083       .  S
C815        C820   1.404       .  A
C815        C824   1.408       .  A
C820        C821   1.399       .  A
C820        H825   1.083       .  S
C821        C822   1.407       .  A
C821        H826   1.083       .  S
C822        C823   1.403       .  A
C823        C824   1.399       .  A
C823        H827   1.083       .  S
C824        H828   1.083       .  S
C829        C830   1.408       .  A
C829        C834   1.399   1_556  A
C829        H839   1.083   1_556  S
C830        C831   1.407       .  A
C830        C835   1.490       .  S
C831        C832   1.399       .  A
C831        H836   1.082       .  S
C832        C833   1.404   1_556  A
C832        H837   1.083       .  S
C833        C834   1.403       .  A
C834        H838   1.083       .  S
C835        C840   1.406       .  A
C835        C844   1.407       .  A
C840        C841   1.398       .  A
C840        H845   1.083       .  S
C841        C842   1.405       .  A
C841        H846   1.083       .  S
C842        C843   1.405       .  A
C843        C844   1.402       .  A
C843        H847   1.082       .  S
C844        H848   1.083       .  S
C849        C850   1.407       .  A
C849        C854   1.397       .  A
C849        H859   1.083       .  S
C850        C851   1.407       .  A
C850        C855   1.489       .  S
C851        C852   1.398       .  A
C851        H856   1.082       .  S
C852        C853   1.405   1_655  A
C852        H857   1.082   1_655  S
C853        C854   1.404   1_455  A
C854        H858   1.082   1_655  S
C855        C860   1.407       .  A
C855        C864   1.407       .  A
C860        C861   1.396       .  A
C860        H865   1.082       .  S
C861        C862   1.404       .  A
C861        H866   1.082       .  S
C862        C863   1.406       .  A
C863        C864   1.399       .  A
C863        H867   1.082       .  S
C864        H868   1.083       .  S
C869        C870   1.408       .  A
C869        C874   1.398       .  A
C869        H879   1.082   1_545  S
C870        C871   1.410       .  A
C870        C875   1.493       .  S
C871        C872   1.400       .  A
C871        H876   1.082       .  S
C872        C873   1.402       .  A
C872        H877   1.083       .  S
C873        C874   1.402       .  A
C874        H878   1.083       .  S
C875        C880   1.408   1_545  A
C875        C884   1.406   1_545  A
C880        C881   1.399       .  A
C880        H885   1.082       .  S
C881        C882   1.404       .  A
C881        H886   1.082       .  S
C882        C883   1.407       .  A
C883        C884   1.399       .  A
C883        H887   1.082       .  S
C884        H888   1.083   1_565  S
C889        C890   1.404       .  A
C889        C894   1.393       .  A
C889        H899   1.083       .  S
C890        C891   1.407       .  A
C890        C895   1.485       .  S
C891        C892   1.400       .  A
C891        H896   1.083       .  S
C892        C893   1.406       .  A
C892        H897   1.081       .  S
C893        C894   1.407       .  A
C894        H898   1.081       .  S
C895        C900   1.407       .  A
C895        C904   1.405       .  A
C900        C901   1.397       .  A
C900        H905   1.083       .  S
C901        C902   1.404       .  A
C901        H906   1.082       .  S
C902        C903   1.405       .  A
C903        C904   1.396       .  A
C903        H907   1.082       .  S
C904        H908   1.082       .  S
C909        C910   1.406       .  A
C909        C914   1.399       .  A
C909        H919   1.082       .  S
C910        C911   1.410       .  A
C910        C915   1.493       .  S
C911        C912   1.401       .  A
C911        H916   1.083       .  S
C912        C913   1.402       .  A
C912        H917   1.083       .  S
C913        C914   1.405       .  A
C914        H918   1.083       .  S
C915        C920   1.409       .  A
C915        C924   1.404       .  A
C920        C921   1.405       .  A
C920        H925   1.082       .  S
C921        C922   1.406       .  A
C921        H926   1.082       .  S
C922        C923   1.408       .  A
C923        C924   1.395       .  A
C923        H927   1.080       .  S
C924        H928   1.083       .  S
C929        C930   1.405       .  A
C929        C934   1.398       .  A
C929        H939   1.083       .  S
C930        C931   1.404       .  A
C930        C935   1.482       .  S
C931        C932   1.395       .  A
C931        H936   1.083       .  S
C932        C933   1.405       .  A
C932        H937   1.082       .  S
C933        C934   1.405       .  A
C934        H938   1.082       .  S
C935        C940   1.404       .  A
C935        C944   1.405       .  A
C940        C941   1.393       .  A
C940        H945   1.083       .  S
C941        C942   1.405       .  A
C941        H946   1.081       .  S
C942        C943   1.406       .  A
C943        C944   1.399       .  A
C943        H947   1.082       .  S
C944        H948   1.083       .  S
C949        C950   1.407       .  A
C949        C954   1.402       .  A
C949        H959   1.082       .  S
C950        C951   1.405       .  A
C950        C955   1.489       .  S
C951        C952   1.395       .  A
C951        H956   1.083       .  S
C952        C953   1.405       .  A
C952        H957   1.082       .  S
C953        C954   1.405       .  A
C954        H958   1.082       .  S
C955        C960   1.407       .  A
C955        C964   1.407       .  A
C960        C961   1.397       .  A
C960        H965   1.083       .  S
C961        C962   1.403       .  A
C961        H966   1.083       .  S
C962        C963   1.405       .  A
C963        C964   1.400       .  A
C963        H967   1.083       .  S
C964        H968   1.082       .  S
C969        C970   1.405       .  A
C969        C974   1.395       .  A
C969        H979   1.082       .  S
C970        C971   1.407       .  A
C970        C975   1.488       .  S
C971        C972   1.399       .  A
C971        H976   1.083       .  S
C972        C973   1.406       .  A
C972        H977   1.081       .  S
C973        C974   1.407       .  A
C974        H978   1.081       .  S
C975        C980   1.408       .  A
C975        C984   1.407       .  A
C980        C981   1.397       .  A
C980        H985   1.082       .  S
C981        C982   1.402       .  A
C981        H986   1.083       .  S
C982        C983   1.403       .  A
C983        C984   1.396       .  A
C983        H987   1.083       .  S
C984        H988   1.082       .  S
C989        C990   1.408   1_565  A
C989        C994   1.401       .  A
C989        H999   1.082       .  S
C990        C991   1.406       .  A
C990        C995   1.491       .  S
C991        C992   1.395       .  A
C991        H996   1.082       .  S
C992        C993   1.405   1_545  A
C992        H997   1.082       .  S
C993        C994   1.405       .  A
C994        H998   1.082       .  S
C995       C1000   1.409       .  A
C995       C1004   1.407       .  A
C1000      C1001   1.398       .  A
C1000      H1005   1.082       .  S
C1001      C1002   1.403       .  A
C1001      H1006   1.083       .  S
C1002      C1003   1.404       .  A
C1003      C1004   1.398       .  A
C1003      H1007   1.083       .  S
C1004      H1008   1.082       .  S
