geometry optimzed in LAMMPS
_audit_creation_date              2020-11-30 
_audit_creation_method            'lammps2cif' 
_symmetry_space_group_name_H-M    'P1' 
_symmetry_Int_Tables_number       1 
_symmetry_cell_setting            triclinic 
loop_ 
_symmetry_equiv_pos_as_xyz 
  x,y,z 
_cell_length_a                    35.91624598875691 
_cell_length_b                    31.198378593956726 
_cell_length_c                    28.074234686585996 
_cell_angle_alpha                 86.99499409873643 
_cell_angle_beta                  91.68740423775112 
_cell_angle_gamma                 124.09825658204598 
loop_ 
_atom_site_label 
_atom_site_type_symbol 
_atom_site_fract_x 
_atom_site_fract_y 
_atom_site_fract_z 
_atom_site_charge 
C1          C  0.33873746  0.18663202  0.02904396    -0.02220
C2          C  0.33375123  0.17766777  0.24402230    -0.02220
C3          C  0.16681608  0.33707115  0.42541488    -0.02220
C4          C  0.16660217  0.33690659  0.20972153    -0.02220
C5          C  0.42833298  0.08695635  0.47940741     0.76720
Tb6        Tb  0.05294801  0.00987263  0.47911549     1.80740
O7          O  0.41643484  0.05555554  0.44676807    -0.51300
O8          O  0.38340500  0.44453666  0.44353588    -0.58750
C9          C  0.05077503  0.11117081  0.46713618     0.92530
O10         O  0.12595393  0.07909195  0.95530322    -0.58280
Tb11       Tb  0.45003513  0.01357757  0.47749731     1.78060
O12         O  0.06302172  0.44338092  0.50346397    -0.58780
O13         O  0.44274204  0.43961511  0.51179335    -0.77580
O14         O  0.01492466  0.08546444  0.44325862    -0.76900
O15         O  0.47946307  0.02317337  0.05526817    -0.62170
C16         C  0.45117433  0.41202006  0.48912648     0.92120
O17         O  0.03567607  0.02023449  0.40026917    -0.74110
C18         C  0.08384634  0.94696624  0.46630371     0.75570
C19         C  0.35673002  0.44151504  0.47395980     0.76550
O20         O  0.45301715  0.08380174  0.01037224    -0.59360
O21         O  0.37652354  0.47282986  0.00676177    -0.51310
O22         O  0.02639942  0.99702665  0.05734620    -0.77370
O23         O  0.46547339  0.00130065  0.40052574    -0.61370
C24         C  0.49983265  0.00957672  0.37901578     0.90340
C25         C  0.50335292  0.01025652  0.07786376     0.91570
C26         C  0.14583530  0.07480610  0.99131812     0.75910
O27         O  0.08623052  0.97880355  0.43487545    -0.50700
O28         O  0.11937921  0.54118147  0.02221814    -0.51850
O29         O  0.48409282  0.43299054  0.46064354    -0.64700
O30         O  0.06201983  0.08793975  0.49616476    -0.65840
C31         C  0.40654110  0.05574491  0.25701862     0.76720
Tb32       Tb  0.05791152  0.01127626  0.23114435     1.80740
O33         O  0.40183073  0.03915908  0.21601978    -0.51300
O34         O  0.38276881  0.47449812  0.17391288    -0.58750
C35         C  0.04879162  0.11209517  0.20253646     0.92530
O36         O  0.12811644  0.09209880  0.23105946    -0.58280
Tb37       Tb  0.44434086  0.00373829  0.22599608     1.78060
O38         O  0.09581919  0.47051303  0.24212869    -0.58780
O39         O  0.43302522  0.42268874  0.24290252    -0.77580
O40         O  0.00636725  0.08700796  0.20672082    -0.76900
O41         O  0.46598379  0.00543757  0.30503024    -0.62170
C42         C  0.45489104  0.40232392  0.25183573     0.92120
O43         O  0.03092527  0.00260563  0.15287905    -0.74110
C44         C  0.09686053  0.96110231  0.19945012     0.75570
C45         C  0.35617480  0.43192126  0.19609456     0.76550
O46         O  0.43159277  0.04823394  0.28335588    -0.59360
O47         O  0.37427781  0.42382661  0.23142019    -0.51310
O48         O  0.03010238  0.00900524  0.30624765    -0.77370
O49         O  0.47529982  0.01541167  0.15037158    -0.61370
C50         C  0.50325036  0.00936805  0.13031570     0.90340
C51         C  0.49846304  0.00779005  0.32684951     0.91570
C52         C  0.14559922  0.08084180  0.26480662     0.75910
O53         O  0.07706382  0.97502480  0.17147046    -0.50700
O54         O  0.11875549  0.53619570  0.28325199    -0.51850
O55         O  0.49747546  0.42776427  0.25276857    -0.64700
O56         O  0.07083509  0.09154303  0.20784062    -0.65840
C57         C  0.08683684  0.25097265  0.21226151    -0.21040
C58         C  0.13180581  0.27895547  0.19597216    -0.09080
C59         C  0.14312366  0.25016281  0.16901559     0.29780
C60         C  0.11569458  0.19591793  0.17026663    -0.21040
C61         C  0.07425885  0.16886272  0.19386861    -0.09090
C62         C  0.05876744  0.19713884  0.21192123     0.29780
F63         F  0.01730144  0.17289062  0.23183172    -0.19620
H64         H  0.07205130  0.26968578  0.22489528     0.18150
H65         H  0.12696327  0.17499366  0.15274178     0.18150
F66         F  0.17983867  0.27333204  0.14037346    -0.19610
C67         C  0.09914125  0.39221756  0.16010911    -0.21040
C68         C  0.12050360  0.43757846  0.18574269    -0.09080
C69         C  0.16245873  0.45581129  0.20642958     0.29780
C70         C  0.17953164  0.42541823  0.20783521    -0.21040
C71         C  0.15438397  0.37497258  0.19019452    -0.09090
C72         C  0.11639882  0.36131283  0.16141094     0.29780
F73         F  0.09479215  0.31774091  0.13618178    -0.19620
H74         H  0.06752083  0.37876339  0.14221211     0.18150
H75         H  0.21051870  0.43924230  0.22724272     0.18150
F76         F  0.18516015  0.00121729  0.22901680    -0.19610
C77         C  0.28753342  0.41847860  0.15707160    -0.21040
C78         C  0.30760417  0.39884151  0.18612108    -0.09080
C79         C  0.28003480  0.35182957  0.21200146     0.29780
C80         C  0.23388925  0.32921495  0.21416120    -0.21040
C81         C  0.21438995  0.35444080  0.19279270    -0.09090
C82         C  0.24125629  0.39621420  0.15959223     0.29780
F83         F  0.22391687  0.41698028  0.13054960    -0.19620
H84         H  0.30806775  0.45342374  0.13489894     0.18150
H85         H  0.21395374  0.29502884  0.23742148     0.18150
F86         F  0.29798697  0.33037689  0.23902903    -0.19610
C87         C  0.06156442  0.19405071  0.43800263    -0.21040
C88         C  0.07918261  0.16833334  0.46095202    -0.09080
C89         C  0.12320155  0.19796230  0.47864439     0.29780
C90         C  0.14985817  0.25163152  0.46999801    -0.21040
C91         C  0.13454572  0.27794051  0.44155645    -0.09090
C92         C  0.08790788  0.24766147  0.42980231     0.29780
F93         F  0.06539255  0.26910537  0.41541949    -0.19620
H94         H  0.02653283  0.17269799  0.42742479     0.18150
H95         H  0.18250031  0.27159331  0.48659489     0.18150
F96         F  0.14099389  0.17531627  0.00403579    -0.19610
C97         C  0.11583010  0.34990867  0.47846013    -0.21040
C98         C  0.14826426  0.36841922  0.44172243    -0.09080
C99         C  0.16364320  0.41752481  0.41970497     0.29780
C100        C  0.14204710  0.44196715  0.42799720    -0.21040
C101        C  0.10644796  0.42024090  0.46048034    -0.09090
C102        C  0.09490420  0.37535524  0.48754925     0.29780
F103        F  0.06260876  0.35523186  0.02166776    -0.19620
H104        H  0.10579308  0.31512180  0.99971599     0.18150
H105        H  0.15351522  0.47844561  0.40893713     0.18150
F106        F  0.19912203  0.44180223  0.38930645    -0.19610
C107        C  0.28159942  0.42295915  0.49121433    -0.21040
C108        C  0.30736956  0.40843815  0.46961647    -0.09080
C109        C  0.28589570  0.36543058  0.44095458     0.29780
C110        C  0.24008622  0.34039055  0.43089371    -0.21040
C111        C  0.21491869  0.35949312  0.44657765    -0.09090
C112        C  0.23605766  0.39899885  0.48032222     0.29780
F113        F  0.21382150  0.41545958  0.50317494    -0.19620
H114        H  0.29727978  0.45492165  0.51497467     0.18150
H115        H  0.22484192  0.30841900  0.40717756     0.18150
F116        F  0.30944450  0.34889310  0.42099598    -0.19610
C117        C  0.13063920  0.32978161  0.34202348    -0.21040
C118        C  0.16896940  0.34218923  0.36899246    -0.09080
C119        C  0.20933415  0.36801315  0.34182859     0.29780
C120        C  0.20825831  0.36551004  0.29231881    -0.21040
C121        C  0.16757267  0.34081641  0.26597930    -0.09090
C122        C  0.13027672  0.33119438  0.29218756     0.29780
F123        F  0.09727026  0.33391924  0.27093554    -0.19620
H124        H  0.10273576  0.32680699  0.35852002     0.18150
H125        H  0.24057591  0.38829466  0.27490010     0.18150
F126        F  0.25001821  0.40325260  0.36071482    -0.19610
C127        C  0.26123750  0.11562820  0.29566137    -0.21040
C128        C  0.28715550  0.16078021  0.26565452    -0.09080
C129        C  0.26749349  0.18898349  0.25492017     0.29780
C130        C  0.22091734  0.16437405  0.25815181    -0.21040
C131        C  0.19388923  0.11345368  0.27692433    -0.09090
C132        C  0.21486444  0.09149080  0.30029393     0.29780
F133        F  0.19029855  0.54429462  0.32338650    -0.19620
H134        H  0.27538327  0.09613512  0.31293234     0.18150
H135        H  0.20581917  0.18383303  0.24292024     0.18150
F136        F  0.29211353  0.23798907  0.23542519    -0.19610
C137        C  0.40926348  0.26453508  0.22475787    -0.21040
C138        C  0.37075795  0.23561004  0.25433025    -0.09080
C139        C  0.36718590  0.26280322  0.29114027     0.29780
C140        C  0.39495245  0.31719926  0.29107797    -0.21040
C141        C  0.42945046  0.34532474  0.25737581    -0.09090
C142        C  0.43785008  0.31833249  0.22595967     0.29780
F143        F  0.47192901  0.34432672  0.19381665    -0.19620
H144        H  0.41687896  0.24641425  0.19876088     0.18150
H145        H  0.38934330  0.33738863  0.31717478     0.18150
F146        F  0.33642776  0.23746646  0.32663335    -0.19610
C147        C  0.38820030  0.15853061  0.28883805    -0.21040
C148        C  0.34725178  0.14070037  0.26429195    -0.09080
C149        C  0.32175919  0.08839714  0.25047145     0.29780
C150        C  0.33998827  0.05910299  0.25354162    -0.21040
C151        C  0.38359980  0.08026367  0.27074813    -0.09090
C152        C  0.40649387  0.12867842  0.29157020     0.29780
F153        F  0.44845717  0.14949761  0.30958821    -0.19620
H154        H  0.40825725  0.19718520  0.30207748     0.18150
H155        H  0.32149591  0.02133310  0.23811193     0.18230
F156        F  0.28198192  0.06818956  0.22716724    -0.19610
C157        C  0.25979417  0.10531457  0.02648716    -0.21040
C158        C  0.28948079  0.15757053  0.01005317    -0.09080
C159        C  0.27033919  0.18075302  0.98335335     0.29780
C160        C  0.22371839  0.15308981  0.97586372    -0.21040
C161        C  0.19500936  0.10299617  0.99599719    -0.09090
C162        C  0.21353445  0.07897663  0.02063427     0.29780
F163        F  0.18686912  0.52980805  0.03940011    -0.19620
H164        H  0.27265772  0.08557543  0.04644504     0.18150
H165        H  0.20983930  0.17181665  0.95611864     0.18150
F166        F  0.29518853  0.23045890  0.96616071    -0.19610
C167        C  0.38211072  0.28245547  0.05412598    -0.21040
C168        C  0.36721920  0.24639956  0.51760896    -0.09080
C169        C  0.38330748  0.26721189  0.47076466     0.29780
C170        C  0.41125583  0.32103306  0.46136993    -0.21040
C171        C  0.42337902  0.35543021  0.49808687    -0.09090
C172        C  0.40849681  0.33552239  0.04442482     0.29780
F173        F  0.42094001  0.36758518  0.08120911    -0.19620
H174        H  0.37477802  0.27116869  0.09130299     0.18150
H175        H  0.42270701  0.33583699  0.42523621     0.18150
F176        F  0.37183088  0.23548403  0.43394030    -0.19610
C177        C  0.36883369  0.10270216  0.46306779    -0.21040
C178        C  0.41069143  0.11941645  0.48330739    -0.09080
C179        C  0.43250364  0.16385286  0.51016247     0.29780
C180        C  0.41041632  0.18763336  0.52057919    -0.21040
C181        C  0.36487879  0.16549071  0.50751532    -0.09090
C182        C  0.34632053  0.12560595  0.47409224     0.29780
F183        F  0.30687861  0.10815424  0.45112482    -0.19620
H184        H  0.35232408  0.07000971  0.44012648     0.18150
H185        H  0.42759295  0.22092512  0.54273616     0.18150
F186        F  0.47450964  0.18336083  0.52750313    -0.19610
C187        C  0.30188743  0.18110665  0.15892655    -0.21040
C188        C  0.33023815  0.17246466  0.18771971    -0.09080
C189        C  0.35775792  0.16160747  0.16214633     0.29780
C190        C  0.35640001  0.15985969  0.11257485    -0.21040
C191        C  0.33319843  0.17634531  0.08459108    -0.09090
C192        C  0.30438724  0.18501294  0.10938824     0.29780
F193        F  0.27993553  0.20040033  0.08582564    -0.19620
H194        H  0.27763236  0.18663318  0.17254377     0.18150
H195        H  0.37585130  0.14758747  0.09732338     0.18150
F196        F  0.38885212  0.15559351  0.18397274    -0.19610
C197        C  0.33874124  0.18663617  0.52904648    -0.02220
C198        C  0.33375495  0.17767099  0.74402551    -0.02220
C199        C  0.16681227  0.33706809  0.92541715    -0.02220
C200        C  0.16660306  0.33691036  0.70972521    -0.02220
C201        C  0.42832742  0.08695024  0.97940641     0.76720
Tb202      Tb  0.05294427  0.00986910  0.97911538     1.80740
O203        O  0.41642805  0.05554800  0.94676811    -0.51300
O204        O  0.38339880  0.44452899  0.94353832    -0.58750
C205        C  0.05076945  0.11116579  0.96713484     0.92530
O206        O  0.12595813  0.07909503  0.45530440    -0.58280
Tb207      Tb  0.45002965  0.01357137  0.97749743     1.78060
O208        O  0.06301494  0.44337518  0.00346442    -0.58780
O209        O  0.44273887  0.43961042  0.01179417    -0.77580
O210        O  0.01491860  0.08545878  0.94325811    -0.76900
O211        O  0.47946814  0.02317846  0.55526809    -0.62170
C212        C  0.45117126  0.41201589  0.98912663     0.92120
O213        O  0.03567242  0.02023152  0.90026951    -0.74110
C214        C  0.08384140  0.94696132  0.96630540     0.75570
C215        C  0.35672448  0.44150747  0.97396311     0.76550
O216        O  0.45302202  0.08380706  0.51037361    -0.59360
O217        O  0.37652834  0.47283642  0.50675934    -0.51310
O218        O  0.02640200  0.99702831  0.55734626    -0.77370
O219        O  0.46546873  0.00129481  0.90052575    -0.61370
C220        C  0.49982883  0.00957279  0.87901595     0.90340
C221        C  0.50335654  0.01025963  0.57786383     0.91570
C222        C  0.14583871  0.07480926  0.49132016     0.75910
O223        O  0.08622796  0.97880008  0.93487725    -0.50700
O224        O  0.11938192  0.54118479  0.52221989    -0.51850
O225        O  0.48408924  0.43298698  0.96064296    -0.64700
O226        O  0.06201429  0.08793538  0.99616428    -0.65840
C227        C  0.40654225  0.05574509  0.75701717     0.76720
Tb228      Tb  0.05791316  0.01127853  0.73114582     1.80740
O229        O  0.40183167  0.03915904  0.71601834    -0.51300
O230        O  0.38276931  0.47449650  0.67391155    -0.58750
C231        C  0.04879323  0.11209719  0.70254016     0.92530
O232        O  0.12811798  0.09210188  0.73106228    -0.58280
Tb233      Tb  0.44434168  0.00373813  0.72599488     1.78060
O234        O  0.09582573  0.47052093  0.74212719    -0.58780
O235        O  0.43302885  0.42268950  0.74289722    -0.77580
O236        O  0.00636881  0.08700932  0.70672496    -0.76900
O237        O  0.46598018  0.00543231  0.80502996    -0.62170
C238        C  0.45489486  0.40232630  0.75183891     0.92120
O239        O  0.03092691  0.00260662  0.65288002    -0.74110
C240        C  0.09686087  0.96110404  0.69944926     0.75570
C241        C  0.35617500  0.43192068  0.69609469     0.76550
O242        O  0.43159398  0.04823419  0.78335443    -0.59360
O243        O  0.37427805  0.42382714  0.73142097    -0.51310
O244        O  0.03010197  0.00900698  0.80624812    -0.77370
O245        O  0.47530284  0.01541502  0.65037106    -0.61370
C246        C  0.50325312  0.00937048  0.63031588     0.90340
C247        C  0.49846044  0.00778761  0.82684965     0.91570
C248        C  0.14560148  0.08084386  0.76480782     0.75910
O249        O  0.07705818  0.97502014  0.67147156    -0.50700
O250        O  0.11875813  0.53619691  0.78325177    -0.51850
O251        O  0.49747926  0.42776819  0.75277943    -0.64700
O252        O  0.07083714  0.09154543  0.70784184    -0.65840
C253        C  0.08683990  0.25097356  0.71227833    -0.21040
C254        C  0.13180624  0.27895800  0.69597996    -0.09080
C255        C  0.14312159  0.25016654  0.66901791     0.29780
C256        C  0.11569290  0.19592158  0.67026773    -0.21040
C257        C  0.07425991  0.16886503  0.69387524    -0.09090
C258        C  0.05877100  0.19713972  0.71193695     0.29780
F259        F  0.01730836  0.17288988  0.73185607    -0.19620
H260        H  0.07205670  0.26968408  0.72492200     0.18150
H261        H  0.12695968  0.17499830  0.65273759     0.18150
F262        F  0.17983413  0.27333730  0.64037194    -0.19610
C263        C  0.09913810  0.39221531  0.66011208    -0.21040
C264        C  0.12050327  0.43757989  0.68574041    -0.09080
C265        C  0.16246067  0.45581570  0.70642289     0.29780
C266        C  0.17953341  0.42542243  0.70783032    -0.21040
C267        C  0.15438402  0.37497444  0.69019483    -0.09090
C268        C  0.11639561  0.36131053  0.66141529     0.29780
F269        F  0.09478471  0.31773369  0.63619306    -0.19620
H270        H  0.06751541  0.37875823  0.64221907     0.18150
H271        H  0.21052177  0.43924828  0.72723590     0.18150
F272        F  0.18516431  0.00122471  0.72900532    -0.19610
C273        C  0.28753341  0.41847807  0.65707216    -0.21040
C274        C  0.30760407  0.39884121  0.68612208    -0.09080
C275        C  0.28003445  0.35183001  0.71200357     0.29780
C276        C  0.23388898  0.32921634  0.71416402    -0.21040
C277        C  0.21439032  0.35444295  0.69279572    -0.09090
C278        C  0.24125648  0.39621472  0.65959363     0.29780
F279        F  0.22391708  0.41697996  0.63054982    -0.19620
H280        H  0.30806774  0.45342228  0.63489836     0.18150
H281        H  0.21395336  0.29503087  0.73742498     0.18150
F282        F  0.29798641  0.33037727  0.73903140    -0.19610
C283        C  0.06156191  0.19404487  0.93799161    -0.21040
C284        C  0.07917757  0.16832830  0.96094872    -0.09080
C285        C  0.12319434  0.19795807  0.97864688     0.29780
C286        C  0.14985106  0.25162733  0.97000071    -0.21040
C287        C  0.13454135  0.27793595  0.94155371    -0.09090
C288        C  0.08790556  0.24765561  0.92979091     0.29780
F289        F  0.06539143  0.26909801  0.91539836    -0.19620
H290        H  0.02653189  0.17269154  0.92740777     0.18150
H291        H  0.18249101  0.27158985  0.98660267     0.18150
F292        F  0.14100353  0.17531961  0.50402693    -0.19610
C293        C  0.11581659  0.34989613  0.97845652    -0.21040
C294        C  0.14825987  0.36841449  0.94172757    -0.09080
C295        C  0.16364572  0.41752550  0.91971852     0.29780
C296        C  0.14204967  0.44196814  0.92800975    -0.21040
C297        C  0.10644294  0.42023574  0.96048373    -0.09090
C298        C  0.09489069  0.37534284  0.98754494     0.29780
F299        F  0.06263100  0.35525138  0.52168118    -0.19620
H300        H  0.10581360  0.31514012  0.49972585     0.18150
H301        H  0.15352339  0.47845129  0.90895592     0.18150
F302        F  0.19913073  0.44180706  0.88932801    -0.19610
C303        C  0.28159373  0.42294979  0.99122109    -0.21040
C304        C  0.30736386  0.40842974  0.96962148    -0.09080
C305        C  0.28588969  0.36542253  0.94095909     0.29780
C306        C  0.24008035  0.34038348  0.93089784    -0.21040
C307        C  0.21491368  0.35948709  0.94658181    -0.09090
C308        C  0.23605202  0.39899011  0.98032892     0.29780
F309        F  0.21381513  0.41544846  0.00318402    -0.19620
H310        H  0.29727403  0.45491113  0.01498273     0.18150
H311        H  0.22483589  0.30841279  0.90718071     0.18150
F312        F  0.30943818  0.34888505  0.92099973    -0.19610
C313        C  0.13064185  0.32979668  0.84202504    -0.21040
C314        C  0.16896874  0.34219329  0.86899493    -0.09080
C315        C  0.20933437  0.36801427  0.84183269     0.29780
C316        C  0.20825965  0.36551305  0.79232269    -0.21040
C317        C  0.16757469  0.34082458  0.76598236    -0.09090
C318        C  0.13028074  0.33121055  0.79218914     0.29780
F319        F  0.09727824  0.33394220  0.77093513    -0.19620
H320        H  0.10274164  0.32683018  0.85852139     0.18150
H321        H  0.24057776  0.38829440  0.77490486     0.18150
F322        F  0.25001882  0.40324947  0.86072072    -0.19610
C323        C  0.26124001  0.11562965  0.79566233    -0.21040
C324        C  0.28715855  0.16078261  0.76565674    -0.09080
C325        C  0.26749636  0.18898572  0.75492229     0.29780
C326        C  0.22092008  0.16437607  0.75815343    -0.21040
C327        C  0.19389174  0.11345535  0.77692515    -0.09090
C328        C  0.21486680  0.09149191  0.80029409     0.29780
F329        F  0.19030073  0.54429502  0.82338546    -0.19620
H330        H  0.27538554  0.09613609  0.81293285     0.18150
H331        H  0.20582203  0.18383523  0.74292203     0.18150
F332        F  0.29211633  0.23799114  0.73542694    -0.19610
C333        C  0.40927044  0.26453695  0.72476727    -0.21040
C334        C  0.37076202  0.23561267  0.75433576    -0.09080
C335        C  0.36718753  0.26280658  0.79114324     0.29780
C336        C  0.39495428  0.31720262  0.79108046    -0.21040
C337        C  0.42945489  0.34532736  0.75738095    -0.09090
C338        C  0.43785723  0.31833441  0.72596880     0.29780
F339        F  0.47193898  0.34432798  0.69382892    -0.19620
H340        H  0.41688809  0.24641567  0.69877314     0.18150
H341        H  0.38934312  0.33739261  0.81717467     0.18150
F342        F  0.33642714  0.23747067  0.82663441    -0.19610
C343        C  0.38820159  0.15852993  0.78884132    -0.21040
C344        C  0.34725424  0.14070195  0.76429360    -0.09080
C345        C  0.32176180  0.08839982  0.75047004     0.29780
C346        C  0.33999041  0.05910517  0.75353858    -0.21040
C347        C  0.38360116  0.08026410  0.77074679    -0.09090
C348        C  0.40649462  0.12867715  0.79157207     0.29780
F349        F  0.44845688  0.14949431  0.80959231    -0.19620
H350        H  0.40825809  0.19718339  0.80208330     0.18150
H351        H  0.32149830  0.02133640  0.73810675     0.18230
F352        F  0.28198530  0.06819418  0.72716471    -0.19610
C353        C  0.25979686  0.10531947  0.52649531    -0.21040
C354        C  0.28948413  0.15757372  0.51005672    -0.09080
C355        C  0.27034308  0.18075412  0.48335232     0.29780
C356        C  0.22372229  0.15309089  0.47586266    -0.21040
C357        C  0.19501268  0.10299952  0.49600065    -0.09090
C358        C  0.21353718  0.07898198  0.52064279     0.29780
F359        F  0.18687140  0.52981572  0.53941381    -0.19620
H360        H  0.27265993  0.08558152  0.54645631     0.18150
H361        H  0.20984374  0.17181599  0.45611329     0.18150
F362        F  0.29519326  0.23045753  0.46615328    -0.19610
C363        C  0.38211046  0.28246025  0.55412608    -0.21040
C364        C  0.36721628  0.24639548  0.01760777    -0.09080
C365        C  0.38330214  0.26720825  0.97076303     0.29780
C366        C  0.41125067  0.32102942  0.96136876    -0.21040
C367        C  0.42337653  0.35542607  0.99808674    -0.09090
C368        C  0.40849639  0.33552701  0.54442437     0.29780
F369        F  0.42093675  0.36759015  0.58120789    -0.19620
H370        H  0.37477539  0.27117440  0.59130289     0.18150
H371        H  0.42269970  0.33583378  0.92523462     0.18150
F372        F  0.37182268  0.23548076  0.93393778    -0.19610
C373        C  0.36883204  0.10270217  0.96306149    -0.21040
C374        C  0.41068733  0.11941203  0.98330553    -0.09080
C375        C  0.43249847  0.16384591  0.01016413     0.29780
C376        C  0.41041188  0.18762739  0.02058019    -0.21040
C377        C  0.36487567  0.16548759  0.00751256    -0.09090
C378        C  0.34631949  0.12560690  0.97408553     0.29780
F379        F  0.30688049  0.10816077  0.95111370    -0.19620
H380        H  0.35232375  0.07001245  0.94011697     0.18150
H381        H  0.42758742  0.22091686  0.04274001     0.18150
F382        F  0.47450235  0.18334997  0.02750942    -0.19610
C383        C  0.30189093  0.18110928  0.65892955    -0.21040
C384        C  0.33024374  0.17247064  0.68772260    -0.09080
C385        C  0.35776561  0.16161660  0.66214920     0.29780
C386        C  0.35640855  0.15986981  0.61257768    -0.21040
C387        C  0.33320402  0.17635147  0.58459394    -0.09090
C388        C  0.30439095  0.18501611  0.60939127     0.29780
F389        F  0.27993705  0.20040059  0.58582882    -0.19620
H390        H  0.27763373  0.18663198  0.67254650     0.18150
H391        H  0.37586212  0.14760065  0.59732631     0.18150
F392        F  0.38885963  0.15560252  0.68397599    -0.19610
C393        C  0.33873747  0.68663202  0.02904394    -0.02220
C394        C  0.33375122  0.67766777  0.24402228    -0.02220
C395        C  0.16681609  0.83707116  0.42541489    -0.02220
C396        C  0.16660217  0.83690661  0.20972154    -0.02220
C397        C  0.42833298  0.58695635  0.47940740     0.76720
Tb398      Tb  0.05294801  0.50987263  0.47911549     1.80740
O399        O  0.41643484  0.55555554  0.44676807    -0.51300
O400        O  0.38340500  0.94453666  0.44353588    -0.58750
C401        C  0.05077503  0.61117081  0.46713618     0.92530
O402        O  0.12595393  0.57909195  0.95530321    -0.58280
Tb403      Tb  0.45003513  0.51357757  0.47749731     1.78060
O404        O  0.06302171  0.94338091  0.50346397    -0.58780
O405        O  0.44274204  0.93961511  0.51179335    -0.77580
O406        O  0.01492466  0.58546444  0.44325862    -0.76900
O407        O  0.47946307  0.52317337  0.05526817    -0.62170
C408        C  0.45117433  0.91202006  0.48912649     0.92120
O409        O  0.03567607  0.52023449  0.40026917    -0.74110
C410        C  0.08384633  0.44696624  0.46630370     0.75570
C411        C  0.35673002  0.94151504  0.47395980     0.76550
O412        O  0.45301715  0.58380174  0.01037224    -0.59360
O413        O  0.37652354  0.97282987  0.00676176    -0.51310
O414        O  0.02639943  0.49702665  0.05734620    -0.77370
O415        O  0.46547339  0.50130065  0.40052574    -0.61370
C416        C  0.49983265  0.50957672  0.37901578     0.90340
C417        C  0.50335292  0.51025652  0.07786376     0.91570
C418        C  0.14583531  0.57480609  0.99131810     0.75910
O419        O  0.08623051  0.47880354  0.43487544    -0.50700
O420        O  0.11937920  0.04118148  0.02221816    -0.51850
O421        O  0.48409282  0.93299054  0.46064354    -0.64700
O422        O  0.06201983  0.58793975  0.49616476    -0.65840
C423        C  0.40654110  0.55574491  0.25701861     0.76720
Tb424      Tb  0.05791152  0.51127626  0.23114436     1.80740
O425        O  0.40183073  0.53915909  0.21601978    -0.51300
O426        O  0.38276881  0.97449812  0.17391288    -0.58750
C427        C  0.04879163  0.61209518  0.20253647     0.92530
O428        O  0.12811644  0.59209881  0.23105946    -0.58280
Tb429      Tb  0.44434086  0.50373830  0.22599609     1.78060
O430        O  0.09581917  0.97051301  0.24212868    -0.58780
O431        O  0.43302523  0.92268874  0.24290251    -0.77580
O432        O  0.00636726  0.58700797  0.20672085    -0.76900
O433        O  0.46598379  0.50543757  0.30503024    -0.62170
C434        C  0.45489104  0.90232391  0.25183571     0.92120
O435        O  0.03092527  0.50260563  0.15287906    -0.74110
C436        C  0.09686053  0.46110231  0.19945013     0.75570
C437        C  0.35617481  0.93192125  0.19609456     0.76550
O438        O  0.43159277  0.54823394  0.28335588    -0.59360
O439        O  0.37427781  0.92382661  0.23142020    -0.51310
O440        O  0.03010239  0.50900525  0.30624766    -0.77370
O441        O  0.47529982  0.51541167  0.15037158    -0.61370
C442        C  0.50325036  0.50936805  0.13031570     0.90340
C443        C  0.49846304  0.50779005  0.32684951     0.91570
C444        C  0.14559922  0.58084181  0.26480661     0.75910
O445        O  0.07706380  0.47502478  0.17147047    -0.50700
O446        O  0.11875549  0.03619569  0.28325198    -0.51850
O447        O  0.49747546  0.92776427  0.25276855    -0.64700
O448        O  0.07083509  0.59154304  0.20784061    -0.65840
C449        C  0.08683685  0.75097265  0.21226156    -0.21040
C450        C  0.13180581  0.77895547  0.19597219    -0.09080
C451        C  0.14312366  0.75016282  0.16901560     0.29780
C452        C  0.11569457  0.69591794  0.17026664    -0.21040
C453        C  0.07425886  0.66886272  0.19386863    -0.09090
C454        C  0.05876746  0.69713884  0.21192128     0.29780
F455        F  0.01730147  0.67289062  0.23183180    -0.19620
H456        H  0.07205132  0.76968578  0.22489537     0.18150
H457        H  0.12696326  0.67499367  0.15274177     0.18150
F458        F  0.17983866  0.77333206  0.14037345    -0.19610
C459        C  0.09914125  0.89221755  0.16010911    -0.21040
C460        C  0.12050360  0.93757846  0.18574267    -0.09080
C461        C  0.16245874  0.95581130  0.20642956     0.29780
C462        C  0.17953164  0.92541825  0.20783519    -0.21040
C463        C  0.15438397  0.87497258  0.19019452    -0.09090
C464        C  0.11639881  0.86131282  0.16141095     0.29780
F465        F  0.09479213  0.81774089  0.13618181    -0.19620
H466        H  0.06752082  0.87876337  0.14221212     0.18150
H467        H  0.21051871  0.93924232  0.22724270     0.18150
F468        F  0.18516014  0.50121727  0.22901685    -0.19610
C469        C  0.28753343  0.91847860  0.15707160    -0.21040
C470        C  0.30760417  0.89884151  0.18612108    -0.09080
C471        C  0.28003480  0.85182957  0.21200147     0.29780
C472        C  0.23388925  0.82921495  0.21416121    -0.21040
C473        C  0.21438995  0.85444081  0.19279271    -0.09090
C474        C  0.24125629  0.89621420  0.15959223     0.29780
F475        F  0.22391687  0.91698027  0.13054960    -0.19620
H476        H  0.30806775  0.95342374  0.13489894     0.18150
H477        H  0.21395374  0.79502885  0.23742149     0.18150
F478        F  0.29798697  0.83037688  0.23902904    -0.19610
C479        C  0.06156443  0.69405071  0.43800260    -0.21040
C480        C  0.07918261  0.66833334  0.46095201    -0.09080
C481        C  0.12320155  0.69796230  0.47864440     0.29780
C482        C  0.14985817  0.75163152  0.46999802    -0.21040
C483        C  0.13454572  0.77794052  0.44155645    -0.09090
C484        C  0.08790789  0.74766147  0.42980228     0.29780
F485        F  0.06539256  0.76910537  0.41541944    -0.19620
H486        H  0.02653284  0.67269799  0.42742475     0.18150
H487        H  0.18250030  0.77159331  0.48659490     0.18150
F488        F  0.14099391  0.67531626  0.00403576    -0.19610
C489        C  0.11583008  0.84990865  0.47846012    -0.21040
C490        C  0.14826427  0.86841922  0.44172244    -0.09080
C491        C  0.16364322  0.91752482  0.41970501     0.29780
C492        C  0.14204712  0.94196717  0.42799724    -0.21040
C493        C  0.10644796  0.92024090  0.46048035    -0.09090
C494        C  0.09490418  0.87535522  0.48754924     0.29780
F495        F  0.06260884  0.85523192  0.02166781    -0.19620
H496        H  0.10579314  0.81512186  0.99971603     0.18150
H497        H  0.15351526  0.97844564  0.40893718     0.18150
F498        F  0.19912207  0.94180225  0.38930650    -0.19610
C499        C  0.28159942  0.92295914  0.49121434    -0.21040
C500        C  0.30736956  0.90843815  0.46961648    -0.09080
C501        C  0.28589570  0.86543057  0.44095459     0.29780
C502        C  0.24008622  0.84039054  0.43089372    -0.21040
C503        C  0.21491869  0.85949312  0.44657766    -0.09090
C504        C  0.23605766  0.89899884  0.48032224     0.29780
F505        F  0.21382150  0.91545956  0.50317496    -0.19620
H506        H  0.29727978  0.95492164  0.51497469     0.18150
H507        H  0.22484192  0.80841900  0.40717757     0.18150
F508        F  0.30944450  0.84889309  0.42099599    -0.19610
C509        C  0.13063922  0.82978166  0.34202349    -0.21040
C510        C  0.16896942  0.84218925  0.36899247    -0.09080
C511        C  0.20933417  0.86801317  0.34182860     0.29780
C512        C  0.20825832  0.86551006  0.29231881    -0.21040
C513        C  0.16757268  0.84081644  0.26597931    -0.09090
C514        C  0.13027674  0.83119444  0.29218757     0.29780
F515        F  0.09727029  0.83391931  0.27093554    -0.19620
H516        H  0.10273579  0.82680706  0.35852003     0.18150
H517        H  0.24057592  0.88829466  0.27490011     0.18150
F518        F  0.25001823  0.90325261  0.36071483    -0.19610
C519        C  0.26123750  0.61562821  0.29566136    -0.21040
C520        C  0.28715549  0.66078021  0.26565450    -0.09080
C521        C  0.26749349  0.68898350  0.25492015     0.29780
C522        C  0.22091734  0.66437406  0.25815179    -0.21040
C523        C  0.19388923  0.61345369  0.27692432    -0.09090
C524        C  0.21486444  0.59149081  0.30029393     0.29780
F525        F  0.19029855  0.04429460  0.32338650    -0.19620
H526        H  0.27538327  0.59613513  0.31293233     0.18150
H527        H  0.20581918  0.68383304  0.24292023     0.18150
F528        F  0.29211354  0.73798908  0.23542517    -0.19610
C529        C  0.40926347  0.76453508  0.22475782    -0.21040
C530        C  0.37075795  0.73561003  0.25433022    -0.09080
C531        C  0.36718590  0.76280321  0.29114025     0.29780
C532        C  0.39495246  0.81719925  0.29107796    -0.21040
C533        C  0.42945046  0.84532474  0.25737578    -0.09090
C534        C  0.43785007  0.81833249  0.22595963     0.29780
F535        F  0.47192899  0.84432672  0.19381660    -0.19620
H536        H  0.41687893  0.74641425  0.19876082     0.18150
H537        H  0.38934331  0.83738862  0.31717478     0.18150
F538        F  0.33642778  0.73746645  0.32663334    -0.19610
C539        C  0.38820029  0.65853061  0.28883804    -0.21040
C540        C  0.34725178  0.64070037  0.26429193    -0.09080
C541        C  0.32175919  0.58839713  0.25047144     0.29780
C542        C  0.33998827  0.55910298  0.25354162    -0.21040
C543        C  0.38359980  0.58026367  0.27074813    -0.09090
C544        C  0.40649387  0.62867843  0.29157018     0.29780
F545        F  0.44845717  0.64949762  0.30958819    -0.19620
H546        H  0.40825725  0.69718521  0.30207745     0.18150
H547        H  0.32149590  0.52133309  0.23811194     0.18230
F548        F  0.28198191  0.56818955  0.22716724    -0.19610
C549        C  0.25979418  0.60531456  0.02648711    -0.21040
C550        C  0.28948080  0.65757054  0.01005314    -0.09080
C551        C  0.27033919  0.68075303  0.98335335     0.29780
C552        C  0.22371839  0.65308982  0.97586372    -0.21040
C553        C  0.19500937  0.60299617  0.99599716    -0.09090
C554        C  0.21353446  0.57897662  0.02063421     0.29780
F555        F  0.18686910  0.02980808  0.03940020    -0.19620
H556        H  0.27265773  0.58557541  0.04644496     0.18150
H557        H  0.20983930  0.67181667  0.95611866     0.18150
F558        F  0.29518853  0.73045893  0.96616075    -0.19610
C559        C  0.38211073  0.78245547  0.05412598    -0.21040
C560        C  0.36721920  0.74639956  0.51760896    -0.09080
C561        C  0.38330748  0.76721189  0.47076466     0.29780
C562        C  0.41125583  0.82103306  0.46136993    -0.21040
C563        C  0.42337902  0.85543021  0.49808687    -0.09090
C564        C  0.40849682  0.83552238  0.04442482     0.29780
F565        F  0.42094003  0.86758518  0.08120912    -0.19620
H566        H  0.37477804  0.77116868  0.09130299     0.18150
H567        H  0.42270701  0.83583699  0.42523621     0.18150
F568        F  0.37183088  0.73548403  0.43394030    -0.19610
C569        C  0.36883370  0.60270217  0.46306778    -0.21040
C570        C  0.41069143  0.61941645  0.48330739    -0.09080
C571        C  0.43250364  0.66385286  0.51016247     0.29780
C572        C  0.41041632  0.68763336  0.52057919    -0.21040
C573        C  0.36487879  0.66549072  0.50751532    -0.09090
C574        C  0.34632053  0.62560596  0.47409224     0.29780
F575        F  0.30687862  0.60815425  0.45112480    -0.19620
H576        H  0.35232409  0.57000972  0.44012646     0.18150
H577        H  0.42759295  0.72092512  0.54273617     0.18150
F578        F  0.47450964  0.68336083  0.52750314    -0.19610
C579        C  0.30188742  0.68110665  0.15892653    -0.21040
C580        C  0.33023813  0.67246464  0.18771968    -0.09080
C581        C  0.35775790  0.66160744  0.16214631     0.29780
C582        C  0.35639998  0.65985966  0.11257483    -0.21040
C583        C  0.33319842  0.67634530  0.08459106    -0.09090
C584        C  0.30438723  0.68501294  0.10938822     0.29780
F585        F  0.27993554  0.70040034  0.08582561    -0.19620
H586        H  0.27763236  0.68663318  0.17254374     0.18150
H587        H  0.37585127  0.64758742  0.09732336     0.18150
F588        F  0.38885210  0.65559348  0.18397272    -0.19610
C589        C  0.33874124  0.68663617  0.52904648    -0.02220
C590        C  0.33375495  0.67767099  0.74402550    -0.02220
C591        C  0.16681227  0.83706808  0.92541713    -0.02220
C592        C  0.16660305  0.83691034  0.70972519    -0.02220
C593        C  0.42832742  0.58695025  0.97940640     0.76720
Tb594      Tb  0.05294427  0.50986910  0.97911539     1.80740
O595        O  0.41642805  0.55554800  0.94676810    -0.51300
O596        O  0.38339880  0.94452900  0.94353831    -0.58750
C597        C  0.05076946  0.61116579  0.96713485     0.92530
O598        O  0.12595813  0.57909503  0.45530440    -0.58280
Tb599      Tb  0.45002965  0.51357137  0.97749743     1.78060
O600        O  0.06301495  0.94337518  0.00346441    -0.58780
O601        O  0.44273887  0.93961042  0.01179418    -0.77580
O602        O  0.01491861  0.58545878  0.94325812    -0.76900
O603        O  0.47946814  0.52317846  0.55526809    -0.62170
C604        C  0.45117126  0.91201590  0.98912664     0.92120
O605        O  0.03567242  0.52023151  0.90026952    -0.74110
C606        C  0.08384140  0.44696131  0.96630541     0.75570
C607        C  0.35672448  0.94150748  0.97396310     0.76550
O608        O  0.45302202  0.58380706  0.51037361    -0.59360
O609        O  0.37652834  0.97283642  0.50675935    -0.51310
O610        O  0.02640200  0.49702831  0.55734626    -0.77370
O611        O  0.46546873  0.50129481  0.90052575    -0.61370
C612        C  0.49982883  0.50957279  0.87901594     0.90340
C613        C  0.50335654  0.51025963  0.57786383     0.91570
C614        C  0.14583871  0.57480926  0.49132016     0.75910
O615        O  0.08622796  0.47880007  0.93487726    -0.50700
O616        O  0.11938192  0.04118479  0.52221989    -0.51850
O617        O  0.48408924  0.93298699  0.96064296    -0.64700
O618        O  0.06201430  0.58793538  0.99616429    -0.65840
C619        C  0.40654225  0.55574509  0.75701717     0.76720
Tb620      Tb  0.05791316  0.51127853  0.73114582     1.80740
O621        O  0.40183167  0.53915905  0.71601834    -0.51300
O622        O  0.38276931  0.97449651  0.67391155    -0.58750
C623        C  0.04879322  0.61209718  0.70254014     0.92530
O624        O  0.12811797  0.59210188  0.73106229    -0.58280
Tb625      Tb  0.44434168  0.50373813  0.72599488     1.78060
O626        O  0.09582575  0.97052095  0.74212720    -0.58780
O627        O  0.43302884  0.92268949  0.74289723    -0.77580
O628        O  0.00636880  0.58700932  0.70672493    -0.76900
O629        O  0.46598018  0.50543231  0.80502996    -0.62170
C630        C  0.45489485  0.90232630  0.75183891     0.92120
O631        O  0.03092692  0.50260663  0.65288002    -0.74110
C632        C  0.09686086  0.46110404  0.69944925     0.75570
C633        C  0.35617500  0.93192068  0.69609469     0.76550
O634        O  0.43159398  0.54823418  0.78335443    -0.59360
O635        O  0.37427805  0.92382714  0.73142096    -0.51310
O636        O  0.03010197  0.50900697  0.80624812    -0.77370
O637        O  0.47530284  0.51541502  0.65037106    -0.61370
C638        C  0.50325312  0.50937048  0.63031588     0.90340
C639        C  0.49846044  0.50778760  0.82684964     0.91570
C640        C  0.14560148  0.58084385  0.76480783     0.75910
O641        O  0.07705818  0.47502015  0.67147156    -0.50700
O642        O  0.11875813  0.03619692  0.78325177    -0.51850
O643        O  0.49747925  0.92776819  0.75277942    -0.64700
O644        O  0.07083713  0.59154542  0.70784185    -0.65840
C645        C  0.08683988  0.75097355  0.71227823    -0.21040
C646        C  0.13180624  0.77895799  0.69597991    -0.09080
C647        C  0.14312161  0.75016652  0.66901790     0.29780
C648        C  0.11569291  0.69592156  0.67026772    -0.21040
C649        C  0.07425990  0.66886502  0.69387520    -0.09090
C650        C  0.05877097  0.69713972  0.71193686     0.29780
F651        F  0.01730831  0.67288989  0.73185592    -0.19620
H652        H  0.07205667  0.76968409  0.72492184     0.18150
H653        H  0.12695970  0.67499827  0.65273762     0.18150
F654        F  0.17983416  0.77333727  0.64037196    -0.19610
C655        C  0.09913812  0.89221533  0.66011207    -0.21040
C656        C  0.12050328  0.93757989  0.68574042    -0.09080
C657        C  0.16246066  0.95581569  0.70642293     0.29780
C658        C  0.17953340  0.92542241  0.70783035    -0.21040
C659        C  0.15438402  0.87497443  0.69019483    -0.09090
C660        C  0.11639563  0.86131055  0.66141526     0.29780
F661        F  0.09478475  0.81773373  0.63619300    -0.19620
H662        H  0.06751544  0.87875827  0.64221903     0.18150
H663        H  0.21052176  0.93924825  0.72723594     0.18150
F664        F  0.18516432  0.50122474  0.72900526    -0.19610
C665        C  0.28753341  0.91847807  0.65707216    -0.21040
C666        C  0.30760407  0.89884121  0.68612207    -0.09080
C667        C  0.28003446  0.85183001  0.71200357     0.29780
C668        C  0.23388898  0.82921634  0.71416401    -0.21040
C669        C  0.21439032  0.85444294  0.69279570    -0.09090
C670        C  0.24125648  0.89621472  0.65959363     0.29780
F671        F  0.22391708  0.91697997  0.63054981    -0.19620
H672        H  0.30806773  0.95342229  0.63489836     0.18150
H673        H  0.21395336  0.79503086  0.73742496     0.18150
F674        F  0.29798642  0.83037727  0.73903139    -0.19610
C675        C  0.06156190  0.69404487  0.93799166    -0.21040
C676        C  0.07917757  0.66832831  0.96094874    -0.09080
C677        C  0.12319435  0.69795807  0.97864688     0.29780
C678        C  0.14985107  0.75162733  0.97000070    -0.21040
C679        C  0.13454135  0.77793595  0.94155372    -0.09090
C680        C  0.08790555  0.74765561  0.92979096     0.29780
F681        F  0.06539141  0.76909802  0.91539845    -0.19620
H682        H  0.02653187  0.67269155  0.92740785     0.18150
H683        H  0.18249103  0.77158985  0.98660264     0.18150
F684        F  0.14100352  0.67531962  0.50402695    -0.19610
C685        C  0.11581663  0.84989616  0.97845653    -0.21040
C686        C  0.14825987  0.86841449  0.94172755    -0.09080
C687        C  0.16364569  0.91752548  0.91971845     0.29780
C688        C  0.14204964  0.94196812  0.92800969    -0.21040
C689        C  0.10644294  0.92023574  0.96048371    -0.09090
C690        C  0.09489073  0.87534288  0.98754496     0.29780
F691        F  0.06263096  0.85525135  0.52168115    -0.19620
H692        H  0.10581356  0.81514008  0.49972583     0.18150
H693        H  0.15352334  0.97845125  0.90895583     0.18150
F694        F  0.19913067  0.94180701  0.88932791    -0.19610
C695        C  0.28159373  0.92294980  0.99122106    -0.21040
C696        C  0.30736387  0.90842975  0.96962146    -0.09080
C697        C  0.28588969  0.86542254  0.94095907     0.29780
C698        C  0.24008036  0.84038349  0.93089783    -0.21040
C699        C  0.21491368  0.85948710  0.94658179    -0.09090
C700        C  0.23605202  0.89899013  0.98032889     0.29780
F701        F  0.21381514  0.91544848  0.00318398    -0.19620
H702        H  0.29727403  0.95491115  0.01498270     0.18150
H703        H  0.22483589  0.80841280  0.90718069     0.18150
F704        F  0.30943818  0.84888506  0.92099972    -0.19610
C705        C  0.13064183  0.82979659  0.84202503    -0.21040
C706        C  0.16896872  0.84219325  0.86899492    -0.09080
C707        C  0.20933435  0.86801425  0.84183267     0.29780
C708        C  0.20825963  0.86551303  0.79232267    -0.21040
C709        C  0.16757467  0.84082454  0.76598235    -0.09090
C710        C  0.13028071  0.83121046  0.79218913     0.29780
F711        F  0.09727820  0.83394208  0.77093513    -0.19620
H712        H  0.10274159  0.82683005  0.85852138     0.18150
H713        H  0.24057775  0.88829439  0.77490484     0.18150
F714        F  0.25001880  0.90324947  0.86072070    -0.19610
C715        C  0.26124000  0.61562964  0.79566232    -0.21040
C716        C  0.28715855  0.66078261  0.76565674    -0.09080
C717        C  0.26749635  0.68898571  0.75492229     0.29780
C718        C  0.22092008  0.66437606  0.75815343    -0.21040
C719        C  0.19389174  0.61345534  0.77692515    -0.09090
C720        C  0.21486680  0.59149190  0.80029409     0.29780
F721        F  0.19030073  0.04429503  0.82338546    -0.19620
H722        H  0.27538554  0.59613608  0.81293285     0.18150
H723        H  0.20582203  0.68383522  0.74292203     0.18150
F724        F  0.29211632  0.73799114  0.73542695    -0.19610
C725        C  0.40927044  0.76453695  0.72476726    -0.21040
C726        C  0.37076201  0.73561266  0.75433576    -0.09080
C727        C  0.36718753  0.76280658  0.79114324     0.29780
C728        C  0.39495428  0.81720262  0.79108046    -0.21040
C729        C  0.42945488  0.84532736  0.75738095    -0.09090
C730        C  0.43785722  0.81833440  0.72596880     0.29780
F731        F  0.47193897  0.84432798  0.69382892    -0.19620
H732        H  0.41688809  0.74641567  0.69877314     0.18150
H733        H  0.38934311  0.83739260  0.81717467     0.18150
F734        F  0.33642714  0.73747066  0.82663440    -0.19610
C735        C  0.38820159  0.65852993  0.78884132    -0.21040
C736        C  0.34725424  0.64070194  0.76429360    -0.09080
C737        C  0.32176180  0.58839981  0.75047004     0.29780
C738        C  0.33999041  0.55910517  0.75353858    -0.21040
C739        C  0.38360116  0.58026410  0.77074679    -0.09090
C740        C  0.40649462  0.62867714  0.79157207     0.29780
F741        F  0.44845688  0.64949431  0.80959231    -0.19620
H742        H  0.40825809  0.69718339  0.80208330     0.18150
H743        H  0.32149830  0.52133640  0.73810675     0.18230
F744        F  0.28198530  0.56819418  0.72716470    -0.19610
C745        C  0.25979687  0.60531947  0.52649530    -0.21040
C746        C  0.28948413  0.65757372  0.51005672    -0.09080
C747        C  0.27034308  0.68075412  0.48335232     0.29780
C748        C  0.22372229  0.65309090  0.47586266    -0.21040
C749        C  0.19501268  0.60299951  0.49600065    -0.09090
C750        C  0.21353719  0.57898198  0.52064278     0.29780
F751        F  0.18687140  0.02981573  0.53941382    -0.19620
H752        H  0.27265993  0.58558152  0.54645630     0.18150
H753        H  0.20984374  0.67181599  0.45611329     0.18150
F754        F  0.29519326  0.73045753  0.46615329    -0.19610
C755        C  0.38211045  0.78246025  0.55412608    -0.21040
C756        C  0.36721629  0.74639548  0.01760776    -0.09080
C757        C  0.38330213  0.76720826  0.97076302     0.29780
C758        C  0.41125066  0.82102943  0.96136875    -0.21040
C759        C  0.42337654  0.85542607  0.99808674    -0.09090
C760        C  0.40849639  0.83552701  0.54442437     0.29780
F761        F  0.42093674  0.86759015  0.58120790    -0.19620
H762        H  0.37477539  0.77117440  0.59130289     0.18150
H763        H  0.42269969  0.83583380  0.92523461     0.18150
F764        F  0.37182266  0.73548077  0.93393776    -0.19610
C765        C  0.36883207  0.60270221  0.96306145    -0.21040
C766        C  0.41068734  0.61941204  0.98330552    -0.09080
C767        C  0.43249847  0.66384591  0.01016414     0.29780
C768        C  0.41041188  0.68762739  0.02058020    -0.21040
C769        C  0.36487568  0.66548761  0.00751254    -0.09090
C770        C  0.34631952  0.62560694  0.97408548     0.29780
F771        F  0.30688054  0.60816085  0.95111362    -0.19620
H772        H  0.35232379  0.57001251  0.94011690     0.18150
H773        H  0.42758741  0.72091684  0.04274004     0.18150
F774        F  0.47450234  0.68334994  0.02750946    -0.19610
C775        C  0.30189093  0.68110928  0.65892954    -0.21040
C776        C  0.33024373  0.67247064  0.68772260    -0.09080
C777        C  0.35776561  0.66161659  0.66214920     0.29780
C778        C  0.35640855  0.65986981  0.61257768    -0.21040
C779        C  0.33320402  0.67635147  0.58459394    -0.09090
C780        C  0.30439095  0.68501610  0.60939127     0.29780
F781        F  0.27993704  0.70040059  0.58582882    -0.19620
H782        H  0.27763373  0.68663198  0.67254650     0.18150
H783        H  0.37586211  0.64760065  0.59732630     0.18150
F784        F  0.38885963  0.65560252  0.68397598    -0.19610
C785        C  0.83873746  0.18663202  0.02904395    -0.02220
C786        C  0.83375123  0.17766778  0.24402230    -0.02220
C787        C  0.66681609  0.33707116  0.42541489    -0.02220
C788        C  0.66660217  0.33690660  0.20972153    -0.02220
C789        C  0.92833298  0.08695635  0.47940740     0.76720
Tb790      Tb  0.55294801  0.00987263  0.47911549     1.80740
O791        O  0.91643484  0.05555554  0.44676807    -0.51300
O792        O  0.88340500  0.44453666  0.44353588    -0.58750
C793        C  0.55077503  0.11117081  0.46713618     0.92530
O794        O  0.62595393  0.07909195  0.95530321    -0.58280
Tb795      Tb  0.95003513  0.01357757  0.47749730     1.78060
O796        O  0.56302171  0.44338092  0.50346397    -0.58780
O797        O  0.94274204  0.43961511  0.51179335    -0.77580
O798        O  0.51492466  0.08546444  0.44325862    -0.76900
O799        O  0.97946307  0.02317337  0.05526817    -0.62170
C800        C  0.95117433  0.41202006  0.48912648     0.92120
O801        O  0.53567607  0.02023449  0.40026917    -0.74110
C802        C  0.58384634  0.94696624  0.46630371     0.75570
C803        C  0.85673002  0.44151504  0.47395980     0.76550
O804        O  0.95301715  0.08380175  0.01037224    -0.59360
O805        O  0.87652354  0.47282987  0.00676176    -0.51310
O806        O  0.52639942  0.99702665  0.05734620    -0.77370
O807        O  0.96547340  0.00130065  0.40052573    -0.61370
C808        C  0.99983265  0.00957672  0.37901578     0.90340
C809        C  0.00335292  0.01025652  0.07786375     0.91570
C810        C  0.64583531  0.07480609  0.99131812     0.75910
O811        O  0.58623052  0.97880355  0.43487545    -0.50700
O812        O  0.61937920  0.54118147  0.02221815    -0.51850
O813        O  0.98409282  0.43299054  0.46064354    -0.64700
O814        O  0.56201983  0.08793975  0.49616476    -0.65840
C815        C  0.90654110  0.05574491  0.25701861     0.76720
Tb816      Tb  0.55791152  0.01127626  0.23114436     1.80740
O817        O  0.90183072  0.03915908  0.21601978    -0.51300
O818        O  0.88276881  0.47449813  0.17391288    -0.58750
C819        C  0.54879163  0.11209517  0.20253647     0.92530
O820        O  0.62811644  0.09209880  0.23105946    -0.58280
Tb821      Tb  0.94434086  0.00373830  0.22599608     1.78060
O822        O  0.59581918  0.47051302  0.24212869    -0.58780
O823        O  0.93302523  0.42268874  0.24290251    -0.77580
O824        O  0.50636725  0.08700796  0.20672083    -0.76900
O825        O  0.96598379  0.00543758  0.30503024    -0.62170
C826        C  0.95489104  0.40232392  0.25183573     0.92120
O827        O  0.53092527  0.00260563  0.15287906    -0.74110
C828        C  0.59686053  0.96110231  0.19945012     0.75570
C829        C  0.85617480  0.43192126  0.19609456     0.76550
O830        O  0.93159278  0.04823394  0.28335588    -0.59360
O831        O  0.87427781  0.42382661  0.23142019    -0.51310
O832        O  0.53010238  0.00900525  0.30624766    -0.77370
O833        O  0.97529982  0.01541166  0.15037158    -0.61370
C834        C  0.00325036  0.00936805  0.13031570     0.90340
C835        C  0.99846305  0.00779005  0.32684951     0.91570
C836        C  0.64559922  0.08084181  0.26480662     0.75910
O837        O  0.57706382  0.97502479  0.17147046    -0.50700
O838        O  0.61875549  0.53619569  0.28325198    -0.51850
O839        O  0.99747546  0.42776427  0.25276857    -0.64700
O840        O  0.57083509  0.09154303  0.20784062    -0.65840
C841        C  0.58683685  0.25097265  0.21226153    -0.21040
C842        C  0.63180581  0.27895547  0.19597217    -0.09080
C843        C  0.64312366  0.25016281  0.16901560     0.29780
C844        C  0.61569458  0.19591794  0.17026663    -0.21040
C845        C  0.57425886  0.16886272  0.19386862    -0.09090
C846        C  0.55876745  0.19713884  0.21192125     0.29780
F847        F  0.51730145  0.17289061  0.23183175    -0.19620
H848        H  0.57205130  0.26968578  0.22489532     0.18150
H849        H  0.62696327  0.17499366  0.15274178     0.18150
F850        F  0.67983866  0.27333205  0.14037346    -0.19610
C851        C  0.59914125  0.39221755  0.16010911    -0.21040
C852        C  0.62050360  0.43757846  0.18574268    -0.09080
C853        C  0.66245873  0.45581129  0.20642957     0.29780
C854        C  0.67953164  0.42541824  0.20783520    -0.21040
C855        C  0.65438397  0.37497258  0.19019452    -0.09090
C856        C  0.61639882  0.36131282  0.16141094     0.29780
F857        F  0.59479214  0.31774090  0.13618179    -0.19620
H858        H  0.56752082  0.37876338  0.14221211     0.18150
H859        H  0.71051870  0.43924231  0.22724271     0.18150
F860        F  0.68516015  0.00121729  0.22901681    -0.19610
C861        C  0.78753342  0.41847860  0.15707160    -0.21040
C862        C  0.80760417  0.39884151  0.18612108    -0.09080
C863        C  0.78003480  0.35182957  0.21200147     0.29780
C864        C  0.73388925  0.32921495  0.21416121    -0.21040
C865        C  0.71438995  0.35444081  0.19279270    -0.09090
C866        C  0.74125629  0.39621420  0.15959223     0.29780
F867        F  0.72391687  0.41698028  0.13054960    -0.19620
H868        H  0.80806775  0.45342374  0.13489894     0.18150
H869        H  0.71395374  0.29502885  0.23742149     0.18150
F870        F  0.79798697  0.33037689  0.23902903    -0.19610
C871        C  0.56156442  0.19405071  0.43800262    -0.21040
C872        C  0.57918261  0.16833334  0.46095201    -0.09080
C873        C  0.62320155  0.19796230  0.47864439     0.29780
C874        C  0.64985817  0.25163152  0.46999802    -0.21040
C875        C  0.63454572  0.27794052  0.44155645    -0.09090
C876        C  0.58790788  0.24766147  0.42980230     0.29780
F877        F  0.56539256  0.26910537  0.41541947    -0.19620
H878        H  0.52653283  0.17269799  0.42742478     0.18150
H879        H  0.68250030  0.27159331  0.48659489     0.18150
F880        F  0.64099390  0.17531626  0.00403576    -0.19610
C881        C  0.61583009  0.34990866  0.47846012    -0.21040
C882        C  0.64826426  0.36841922  0.44172243    -0.09080
C883        C  0.66364321  0.41752481  0.41970498     0.29780
C884        C  0.64204711  0.44196716  0.42799722    -0.21040
C885        C  0.60644796  0.42024090  0.46048034    -0.09090
C886        C  0.59490419  0.37535523  0.48754925     0.29780
F887        F  0.56260883  0.35523191  0.02166781    -0.19620
H888        H  0.60579314  0.31512186  0.99971603     0.18150
H889        H  0.65351524  0.47844563  0.40893715     0.18150
F890        F  0.69912205  0.44180224  0.38930647    -0.19610
C891        C  0.78159942  0.42295915  0.49121433    -0.21040
C892        C  0.80736956  0.40843815  0.46961647    -0.09080
C893        C  0.78589570  0.36543058  0.44095459     0.29780
C894        C  0.74008621  0.34039054  0.43089371    -0.21040
C895        C  0.71491869  0.35949312  0.44657766    -0.09090
C896        C  0.73605766  0.39899885  0.48032223     0.29780
F897        F  0.71382150  0.41545957  0.50317495    -0.19620
H898        H  0.79727978  0.45492165  0.51497468     0.18150
H899        H  0.72484192  0.30841900  0.40717757     0.18150
F900        F  0.80944450  0.34889309  0.42099598    -0.19610
C901        C  0.63063921  0.32978163  0.34202348    -0.21040
C902        C  0.66896941  0.34218924  0.36899246    -0.09080
C903        C  0.70933416  0.36801316  0.34182859     0.29780
C904        C  0.70825831  0.36551005  0.29231881    -0.21040
C905        C  0.66757267  0.34081642  0.26597931    -0.09090
C906        C  0.63027673  0.33119441  0.29218757     0.29780
F907        F  0.59727028  0.33391927  0.27093554    -0.19620
H908        H  0.60273577  0.32680702  0.35852002     0.18150
H909        H  0.74057592  0.38829466  0.27490010     0.18150
F910        F  0.75001822  0.40325260  0.36071482    -0.19610
C911        C  0.76123751  0.11562821  0.29566136    -0.21040
C912        C  0.78715550  0.16078022  0.26565452    -0.09080
C913        C  0.76749350  0.18898350  0.25492017     0.29780
C914        C  0.72091734  0.16437406  0.25815180    -0.21040
C915        C  0.69388923  0.11345368  0.27692433    -0.09090
C916        C  0.71486444  0.09149080  0.30029393     0.29780
F917        F  0.69029855  0.54429461  0.32338650    -0.19620
H918        H  0.77538328  0.09613513  0.31293234     0.18150
H919        H  0.70581918  0.18383303  0.24292024     0.18150
F920        F  0.79211353  0.23798907  0.23542518    -0.19610
C921        C  0.90926348  0.26453508  0.22475787    -0.21040
C922        C  0.87075795  0.23561004  0.25433025    -0.09080
C923        C  0.86718590  0.26280322  0.29114026     0.29780
C924        C  0.89495245  0.31719926  0.29107797    -0.21040
C925        C  0.92945046  0.34532474  0.25737581    -0.09090
C926        C  0.93785009  0.31833249  0.22595967     0.29780
F927        F  0.97192901  0.34432672  0.19381665    -0.19620
H928        H  0.91687896  0.24641425  0.19876088     0.18150
H929        H  0.88934330  0.33738863  0.31717478     0.18150
F930        F  0.83642776  0.23746646  0.32663334    -0.19610
C931        C  0.88820030  0.15853061  0.28883805    -0.21040
C932        C  0.84725178  0.14070037  0.26429195    -0.09080
C933        C  0.82175919  0.08839714  0.25047144     0.29780
C934        C  0.83998827  0.05910299  0.25354162    -0.21040
C935        C  0.88359980  0.08026367  0.27074813    -0.09090
C936        C  0.90649387  0.12867842  0.29157019     0.29780
F937        F  0.94845717  0.14949761  0.30958820    -0.19620
H938        H  0.90825725  0.19718521  0.30207747     0.18150
H939        H  0.82149591  0.02133310  0.23811193     0.18230
F940        F  0.78198192  0.06818957  0.22716724    -0.19610
C941        C  0.75979417  0.10531457  0.02648716    -0.21040
C942        C  0.78948079  0.15757053  0.01005316    -0.09080
C943        C  0.77033919  0.18075302  0.98335334     0.29780
C944        C  0.72371839  0.15308981  0.97586371    -0.21040
C945        C  0.69500936  0.10299617  0.99599718    -0.09090
C946        C  0.71353445  0.07897663  0.02063426     0.29780
F947        F  0.68686911  0.52980806  0.03940015    -0.19620
H948        H  0.77265772  0.08557543  0.04644503     0.18150
H949        H  0.70983930  0.17181665  0.95611864     0.18150
F950        F  0.79518854  0.23045890  0.96616070    -0.19610
C951        C  0.88211071  0.28245547  0.05412597    -0.21040
C952        C  0.86721920  0.24639956  0.51760896    -0.09080
C953        C  0.88330748  0.26721189  0.47076466     0.29780
C954        C  0.91125583  0.32103306  0.46136993    -0.21040
C955        C  0.92337902  0.35543021  0.49808687    -0.09090
C956        C  0.90849680  0.33552239  0.04442482     0.29780
F957        F  0.92094000  0.36758518  0.08120911    -0.19620
H958        H  0.87477801  0.27116869  0.09130299     0.18150
H959        H  0.92270701  0.33583699  0.42523621     0.18150
F960        F  0.87183087  0.23548402  0.43394031    -0.19610
C961        C  0.86883369  0.10270216  0.46306779    -0.21040
C962        C  0.91069143  0.11941644  0.48330739    -0.09080
C963        C  0.93250364  0.16385286  0.51016247     0.29780
C964        C  0.91041632  0.18763336  0.52057919    -0.21040
C965        C  0.86487879  0.16549071  0.50751533    -0.09090
C966        C  0.84632052  0.12560594  0.47409225     0.29780
F967        F  0.80687861  0.10815423  0.45112483    -0.19620
H968        H  0.85232407  0.07000970  0.44012648     0.18150
H969        H  0.92759295  0.22092512  0.54273616     0.18150
F970        F  0.97450964  0.18336083  0.52750312    -0.19610
C971        C  0.80188743  0.18110665  0.15892655    -0.21040
C972        C  0.83023815  0.17246466  0.18771970    -0.09080
C973        C  0.85775793  0.16160747  0.16214633     0.29780
C974        C  0.85640001  0.15985969  0.11257485    -0.21040
C975        C  0.83319843  0.17634531  0.08459108    -0.09090
C976        C  0.80438724  0.18501294  0.10938824     0.29780
F977        F  0.77993553  0.20040032  0.08582563    -0.19620
H978        H  0.77763236  0.18663316  0.17254376     0.18150
H979        H  0.87585131  0.14758748  0.09732338     0.18150
F980        F  0.88885213  0.15559352  0.18397274    -0.19610
C981        C  0.83874124  0.18663617  0.52904648    -0.02220
C982        C  0.83375495  0.17767099  0.74402551    -0.02220
C983        C  0.66681227  0.33706808  0.92541714    -0.02220
C984        C  0.66660305  0.33691034  0.70972520    -0.02220
C985        C  0.92832742  0.08695024  0.97940641     0.76720
Tb986      Tb  0.55294427  0.00986910  0.97911538     1.80740
O987        O  0.91642805  0.05554800  0.94676810    -0.51300
O988        O  0.88339880  0.44452900  0.94353831    -0.58750
C989        C  0.55076946  0.11116579  0.96713485     0.92530
O990        O  0.62595813  0.07909503  0.45530440    -0.58280
Tb991      Tb  0.95002965  0.01357137  0.97749743     1.78060
O992        O  0.56301495  0.44337518  0.00346441    -0.58780
O993        O  0.94273887  0.43961042  0.01179417    -0.77580
O994        O  0.51491860  0.08545878  0.94325812    -0.76900
O995        O  0.97946814  0.02317846  0.55526809    -0.62170
C996        C  0.95117126  0.41201590  0.98912663     0.92120
O997        O  0.53567242  0.02023152  0.90026952    -0.74110
C998        C  0.58384140  0.94696132  0.96630540     0.75570
C999        C  0.85672448  0.44150748  0.97396310     0.76550
O1000       O  0.95302202  0.08380706  0.51037361    -0.59360
O1001       O  0.87652834  0.47283642  0.50675935    -0.51310
O1002       O  0.52640200  0.99702831  0.55734626    -0.77370
O1003       O  0.96546873  0.00129481  0.90052574    -0.61370
C1004       C  0.99982883  0.00957279  0.87901594     0.90340
C1005       C  0.00335654  0.01025963  0.57786383     0.91570
C1006       C  0.64583871  0.07480926  0.49132017     0.75910
O1007       O  0.58622796  0.97880007  0.93487726    -0.50700
O1008       O  0.61938192  0.54118479  0.52221989    -0.51850
O1009       O  0.98408924  0.43298699  0.96064296    -0.64700
O1010       O  0.56201429  0.08793538  0.99616428    -0.65840
C1011       C  0.90654225  0.05574509  0.75701717     0.76720
Tb1012     Tb  0.55791316  0.01127853  0.73114583     1.80740
O1013       O  0.90183168  0.03915906  0.71601833    -0.51300
O1014       O  0.88276931  0.47449651  0.67391155    -0.58750
C1015       C  0.54879322  0.11209718  0.70254014     0.92530
O1016       O  0.62811798  0.09210187  0.73106229    -0.58280
Tb1017     Tb  0.94434168  0.00373814  0.72599487     1.78060
O1018       O  0.59582575  0.47052095  0.74212720    -0.58780
O1019       O  0.93302884  0.42268950  0.74289724    -0.77580
O1020       O  0.50636880  0.08700932  0.70672494    -0.76900
O1021       O  0.96598018  0.00543230  0.80502996    -0.62170
C1022       C  0.95489485  0.40232630  0.75183891     0.92120
O1023       O  0.53092691  0.00260662  0.65288002    -0.74110
C1024       C  0.59686086  0.96110404  0.69944926     0.75570
C1025       C  0.85617500  0.43192068  0.69609469     0.76550
O1026       O  0.93159397  0.04823418  0.78335443    -0.59360
O1027       O  0.87427805  0.42382714  0.73142097    -0.51310
O1028       O  0.53010197  0.00900697  0.80624812    -0.77370
O1029       O  0.97530285  0.01541503  0.65037106    -0.61370
C1030       C  0.00325312  0.00937048  0.63031588     0.90340
C1031       C  0.99846044  0.00778760  0.82684964     0.91570
C1032       C  0.64560147  0.08084385  0.76480783     0.75910
O1033       O  0.57705818  0.97502014  0.67147156    -0.50700
O1034       O  0.61875813  0.53619692  0.78325177    -0.51850
O1035       O  0.99747925  0.42776819  0.75277941    -0.64700
O1036       O  0.57083713  0.09154542  0.70784185    -0.65840
C1037       C  0.58683988  0.25097355  0.71227824    -0.21040
C1038       C  0.63180624  0.27895799  0.69597992    -0.09080
C1039       C  0.64312160  0.25016652  0.66901790     0.29780
C1040       C  0.61569291  0.19592156  0.67026772    -0.21040
C1041       C  0.57425990  0.16886502  0.69387521    -0.09090
C1042       C  0.55877098  0.19713972  0.71193687     0.29780
F1043       F  0.51730832  0.17288989  0.73185594    -0.19620
H1044       H  0.57205667  0.26968409  0.72492186     0.18150
H1045       H  0.62695970  0.17499827  0.65273762     0.18150
F1046       F  0.67983416  0.27333727  0.64037196    -0.19610
C1047       C  0.59913812  0.39221533  0.66011207    -0.21040
C1048       C  0.62050328  0.43757989  0.68574042    -0.09080
C1049       C  0.66246066  0.45581569  0.70642292     0.29780
C1050       C  0.67953340  0.42542241  0.70783035    -0.21040
C1051       C  0.65438402  0.37497443  0.69019483    -0.09090
C1052       C  0.61639562  0.36131055  0.66141526     0.29780
F1053       F  0.59478475  0.31773373  0.63619301    -0.19620
H1054       H  0.56751543  0.37875826  0.64221904     0.18150
H1055       H  0.71052176  0.43924825  0.72723593     0.18150
F1056       F  0.68516431  0.00122472  0.72900530    -0.19610
C1057       C  0.78753341  0.41847807  0.65707216    -0.21040
C1058       C  0.80760407  0.39884121  0.68612208    -0.09080
C1059       C  0.78003446  0.35183001  0.71200357     0.29780
C1060       C  0.73388898  0.32921634  0.71416402    -0.21040
C1061       C  0.71439032  0.35444294  0.69279571    -0.09090
C1062       C  0.74125648  0.39621472  0.65959363     0.29780
F1063       F  0.72391708  0.41697996  0.63054981    -0.19620
H1064       H  0.80806774  0.45342228  0.63489836     0.18150
H1065       H  0.71395336  0.29503086  0.73742497     0.18150
F1066       F  0.79798642  0.33037727  0.73903140    -0.19610
C1067       C  0.56156190  0.19404487  0.93799165    -0.21040
C1068       C  0.57917757  0.16832830  0.96094873    -0.09080
C1069       C  0.62319434  0.19795806  0.97864687     0.29780
C1070       C  0.64985107  0.25162733  0.97000070    -0.21040
C1071       C  0.63454135  0.27793595  0.94155372    -0.09090
C1072       C  0.58790555  0.24765561  0.92979095     0.29780
F1073       F  0.56539141  0.26909802  0.91539844    -0.19620
H1074       H  0.52653187  0.17269155  0.92740784     0.18150
H1075       H  0.68249102  0.27158984  0.98660264     0.18150
F1076       F  0.64100352  0.17531961  0.50402694    -0.19610
C1077       C  0.61581662  0.34989616  0.97845653    -0.21040
C1078       C  0.64825987  0.36841449  0.94172755    -0.09080
C1079       C  0.66364569  0.41752548  0.91971846     0.29780
C1080       C  0.64204964  0.44196812  0.92800970    -0.21040
C1081       C  0.60644294  0.42023574  0.96048371    -0.09090
C1082       C  0.59489072  0.37534287  0.98754496     0.29780
F1083       F  0.56263098  0.35525137  0.52168117    -0.19620
H1084       H  0.60581358  0.31514010  0.49972584     0.18150
H1085       H  0.65352335  0.47845125  0.90895584     0.18150
F1086       F  0.69913068  0.44180702  0.88932793    -0.19610
C1087       C  0.78159373  0.42294980  0.99122107    -0.21040
C1088       C  0.80736387  0.40842975  0.96962146    -0.09080
C1089       C  0.78588969  0.36542254  0.94095907     0.29780
C1090       C  0.74008036  0.34038349  0.93089783    -0.21040
C1091       C  0.71491368  0.35948710  0.94658180    -0.09090
C1092       C  0.73605202  0.39899012  0.98032890     0.29780
F1093       F  0.71381514  0.41544848  0.00318399    -0.19620
H1094       H  0.79727403  0.45491115  0.01498270     0.18150
H1095       H  0.72483589  0.30841280  0.90718069     0.18150
F1096       F  0.80943818  0.34888506  0.92099972    -0.19610
C1097       C  0.63064183  0.32979660  0.84202503    -0.21040
C1098       C  0.66896873  0.34219325  0.86899492    -0.09080
C1099       C  0.70933435  0.36801425  0.84183267     0.29780
C1100       C  0.70825963  0.36551303  0.79232268    -0.21040
C1101       C  0.66757467  0.34082454  0.76598235    -0.09090
C1102       C  0.63028072  0.33121047  0.79218913     0.29780
F1103       F  0.59727820  0.33394209  0.77093513    -0.19620
H1104       H  0.60274160  0.32683006  0.85852138     0.18150
H1105       H  0.74057775  0.38829439  0.77490484     0.18150
F1106       F  0.75001880  0.40324947  0.86072071    -0.19610
C1107       C  0.76124000  0.11562964  0.79566233    -0.21040
C1108       C  0.78715855  0.16078261  0.76565675    -0.09080
C1109       C  0.76749635  0.18898571  0.75492230     0.29780
C1110       C  0.72092008  0.16437606  0.75815343    -0.21040
C1111       C  0.69389174  0.11345535  0.77692515    -0.09090
C1112       C  0.71486680  0.09149190  0.80029409     0.29780
F1113       F  0.69030074  0.54429503  0.82338546    -0.19620
H1114       H  0.77538554  0.09613608  0.81293285     0.18150
H1115       H  0.70582203  0.18383522  0.74292203     0.18150
F1116       F  0.79211632  0.23799114  0.73542695    -0.19610
C1117       C  0.90927044  0.26453695  0.72476728    -0.21040
C1118       C  0.87076201  0.23561267  0.75433577    -0.09080
C1119       C  0.86718752  0.26280658  0.79114324     0.29780
C1120       C  0.89495427  0.31720262  0.79108046    -0.21040
C1121       C  0.92945488  0.34532736  0.75738095    -0.09090
C1122       C  0.93785723  0.31833440  0.72596881     0.29780
F1123       F  0.97193898  0.34432798  0.69382893    -0.19620
H1124       H  0.91688809  0.24641567  0.69877315     0.18150
H1125       H  0.88934310  0.33739261  0.81717467     0.18150
F1126       F  0.83642713  0.23747067  0.82663441    -0.19610
C1127       C  0.88820158  0.15852993  0.78884132    -0.21040
C1128       C  0.84725423  0.14070194  0.76429360    -0.09080
C1129       C  0.82176180  0.08839982  0.75047004     0.29780
C1130       C  0.83999041  0.05910517  0.75353858    -0.21040
C1131       C  0.88360115  0.08026410  0.77074679    -0.09090
C1132       C  0.90649461  0.12867714  0.79157208     0.29780
F1133       F  0.94845688  0.14949430  0.80959232    -0.19620
H1134       H  0.90825809  0.19718339  0.80208331     0.18150
H1135       H  0.82149830  0.02133640  0.73810674     0.18230
F1136       F  0.78198530  0.06819418  0.72716470    -0.19610
C1137       C  0.75979686  0.10531947  0.52649531    -0.21040
C1138       C  0.78948413  0.15757372  0.51005672    -0.09080
C1139       C  0.77034308  0.18075412  0.48335233     0.29780
C1140       C  0.72372229  0.15309089  0.47586266    -0.21040
C1141       C  0.69501268  0.10299952  0.49600066    -0.09090
C1142       C  0.71353718  0.07898199  0.52064280     0.29780
F1143       F  0.68687140  0.52981573  0.53941383    -0.19620
H1144       H  0.77265993  0.08558152  0.54645632     0.18150
H1145       H  0.70984374  0.17181598  0.45611329     0.18150
F1146       F  0.79519326  0.23045752  0.46615328    -0.19610
C1147       C  0.88211046  0.28246025  0.55412608    -0.21040
C1148       C  0.86721628  0.24639548  0.01760776    -0.09080
C1149       C  0.88330214  0.26720826  0.97076303     0.29780
C1150       C  0.91125067  0.32102942  0.96136876    -0.21040
C1151       C  0.92337654  0.35542607  0.99808674    -0.09090
C1152       C  0.90849640  0.33552701  0.54442437     0.29780
F1153       F  0.92093675  0.36759015  0.58120789    -0.19620
H1154       H  0.87477540  0.27117440  0.59130289     0.18150
H1155       H  0.92269971  0.33583379  0.92523462     0.18150
F1156       F  0.87182269  0.23548076  0.93393778    -0.19610
C1157       C  0.86883205  0.10270217  0.96306149    -0.21040
C1158       C  0.91068733  0.11941203  0.98330552    -0.09080
C1159       C  0.93249847  0.16384591  0.01016413     0.29780
C1160       C  0.91041188  0.18762739  0.02058019    -0.21040
C1161       C  0.86487567  0.16548759  0.00751256    -0.09090
C1162       C  0.84631949  0.12560690  0.97408552     0.29780
F1163       F  0.80688049  0.10816078  0.95111369    -0.19620
H1164       H  0.85232375  0.07001245  0.94011696     0.18150
H1165       H  0.92758742  0.22091686  0.04274000     0.18150
F1166       F  0.97450236  0.18334997  0.02750941    -0.19610
C1167       C  0.80189093  0.18110929  0.65892955    -0.21040
C1168       C  0.83024374  0.17247065  0.68772261    -0.09080
C1169       C  0.85776561  0.16161660  0.66214921     0.29780
C1170       C  0.85640856  0.15986981  0.61257769    -0.21040
C1171       C  0.83320402  0.17635147  0.58459394    -0.09090
C1172       C  0.80439095  0.18501611  0.60939127     0.29780
F1173       F  0.77993705  0.20040059  0.58582882    -0.19620
H1174       H  0.77763373  0.18663198  0.67254651     0.18150
H1175       H  0.87586212  0.14760066  0.59732631     0.18150
F1176       F  0.88885963  0.15560253  0.68397599    -0.19610
C1177       C  0.83873746  0.68663202  0.02904394    -0.02220
C1178       C  0.83375122  0.67766777  0.24402229    -0.02220
C1179       C  0.66681609  0.83707116  0.42541489    -0.02220
C1180       C  0.66660217  0.83690660  0.20972154    -0.02220
C1181       C  0.92833298  0.58695635  0.47940741     0.76720
Tb1182     Tb  0.55294801  0.50987263  0.47911549     1.80740
O1183       O  0.91643484  0.55555554  0.44676807    -0.51300
O1184       O  0.88340500  0.94453666  0.44353588    -0.58750
C1185       C  0.55077503  0.61117081  0.46713618     0.92530
O1186       O  0.62595393  0.57909195  0.95530321    -0.58280
Tb1187     Tb  0.95003513  0.51357756  0.47749731     1.78060
O1188       O  0.56302171  0.94338092  0.50346397    -0.58780
O1189       O  0.94274204  0.93961511  0.51179335    -0.77580
O1190       O  0.51492466  0.58546444  0.44325862    -0.76900
O1191       O  0.97946307  0.52317337  0.05526817    -0.62170
C1192       C  0.95117433  0.91202006  0.48912648     0.92120
O1193       O  0.53567607  0.52023449  0.40026917    -0.74110
C1194       C  0.58384634  0.44696625  0.46630370     0.75570
C1195       C  0.85673002  0.94151504  0.47395980     0.76550
O1196       O  0.95301715  0.58380174  0.01037224    -0.59360
O1197       O  0.87652354  0.97282987  0.00676176    -0.51310
O1198       O  0.52639942  0.49702665  0.05734620    -0.77370
O1199       O  0.96547339  0.50130065  0.40052574    -0.61370
C1200       C  0.99983265  0.50957672  0.37901578     0.90340
C1201       C  0.00335292  0.51025653  0.07786376     0.91570
C1202       C  0.64583531  0.57480609  0.99131811     0.75910
O1203       O  0.58623052  0.47880355  0.43487545    -0.50700
O1204       O  0.61937920  0.04118148  0.02221815    -0.51850
O1205       O  0.98409282  0.93299054  0.46064353    -0.64700
O1206       O  0.56201983  0.58793976  0.49616476    -0.65840
C1207       C  0.90654110  0.55574491  0.25701862     0.76720
Tb1208     Tb  0.55791152  0.51127626  0.23114435     1.80740
O1209       O  0.90183073  0.53915909  0.21601978    -0.51300
O1210       O  0.88276881  0.97449812  0.17391288    -0.58750
C1211       C  0.54879163  0.61209517  0.20253647     0.92530
O1212       O  0.62811644  0.59209880  0.23105946    -0.58280
Tb1213     Tb  0.94434086  0.50373830  0.22599609     1.78060
O1214       O  0.59581918  0.97051302  0.24212869    -0.58780
O1215       O  0.93302522  0.92268874  0.24290252    -0.77580
O1216       O  0.50636726  0.58700797  0.20672084    -0.76900
O1217       O  0.96598379  0.50543757  0.30503025    -0.62170
C1218       C  0.95489104  0.90232391  0.25183572     0.92120
O1219       O  0.53092526  0.50260562  0.15287906    -0.74110
C1220       C  0.59686053  0.46110230  0.19945013     0.75570
C1221       C  0.85617480  0.93192125  0.19609456     0.76550
O1222       O  0.93159277  0.54823394  0.28335589    -0.59360
O1223       O  0.87427781  0.92382661  0.23142019    -0.51310
O1224       O  0.53010238  0.50900525  0.30624765    -0.77370
O1225       O  0.97529982  0.51541167  0.15037158    -0.61370
C1226       C  0.00325036  0.50936805  0.13031570     0.90340
C1227       C  0.99846304  0.50779005  0.32684951     0.91570
C1228       C  0.64559922  0.58084181  0.26480661     0.75910
O1229       O  0.57706381  0.47502478  0.17147046    -0.50700
O1230       O  0.61875549  0.03619569  0.28325199    -0.51850
O1231       O  0.99747545  0.92776427  0.25276854    -0.64700
O1232       O  0.57083509  0.59154303  0.20784061    -0.65840
C1233       C  0.58683685  0.75097265  0.21226156    -0.21040
C1234       C  0.63180581  0.77895547  0.19597218    -0.09080
C1235       C  0.64312366  0.75016281  0.16901560     0.29780
C1236       C  0.61569457  0.69591794  0.17026663    -0.21040
C1237       C  0.57425886  0.66886272  0.19386863    -0.09090
C1238       C  0.55876746  0.69713884  0.21192127     0.29780
F1239       F  0.51730147  0.67289061  0.23183179    -0.19620
H1240       H  0.57205131  0.76968578  0.22489535     0.18150
H1241       H  0.62696326  0.67499367  0.15274177     0.18150
F1242       F  0.67983866  0.77333205  0.14037345    -0.19610
C1243       C  0.59914125  0.89221755  0.16010911    -0.21040
C1244       C  0.62050360  0.93757846  0.18574268    -0.09080
C1245       C  0.66245874  0.95581130  0.20642956     0.29780
C1246       C  0.67953164  0.92541824  0.20783519    -0.21040
C1247       C  0.65438397  0.87497258  0.19019452    -0.09090
C1248       C  0.61639881  0.86131282  0.16141095     0.29780
F1249       F  0.59479214  0.81774089  0.13618181    -0.19620
H1250       H  0.56752082  0.87876337  0.14221212     0.18150
H1251       H  0.71051871  0.93924232  0.22724270     0.18150
F1252       F  0.68516014  0.50121728  0.22901683    -0.19610
C1253       C  0.78753342  0.91847859  0.15707160    -0.21040
C1254       C  0.80760417  0.89884151  0.18612108    -0.09080
C1255       C  0.78003480  0.85182956  0.21200147     0.29780
C1256       C  0.73388925  0.82921495  0.21416121    -0.21040
C1257       C  0.71438995  0.85444081  0.19279270    -0.09090
C1258       C  0.74125629  0.89621420  0.15959223     0.29780
F1259       F  0.72391687  0.91698027  0.13054959    -0.19620
H1260       H  0.80806775  0.95342374  0.13489893     0.18150
H1261       H  0.71395374  0.79502885  0.23742149     0.18150
F1262       F  0.79798697  0.83037688  0.23902903    -0.19610
C1263       C  0.56156443  0.69405071  0.43800261    -0.21040
C1264       C  0.57918261  0.66833335  0.46095201    -0.09080
C1265       C  0.62320155  0.69796230  0.47864439     0.29780
C1266       C  0.64985817  0.75163153  0.46999802    -0.21040
C1267       C  0.63454572  0.77794052  0.44155645    -0.09090
C1268       C  0.58790789  0.74766147  0.42980229     0.29780
F1269       F  0.56539256  0.76910537  0.41541944    -0.19620
H1270       H  0.52653284  0.67269799  0.42742476     0.18150
H1271       H  0.68250030  0.77159331  0.48659490     0.18150
F1272       F  0.64099390  0.67531626  0.00403577    -0.19610
C1273       C  0.61583008  0.84990865  0.47846012    -0.21040
C1274       C  0.64826427  0.86841922  0.44172244    -0.09080
C1275       C  0.66364322  0.91752482  0.41970500     0.29780
C1276       C  0.64204712  0.94196717  0.42799723    -0.21040
C1277       C  0.60644796  0.92024090  0.46048035    -0.09090
C1278       C  0.59490418  0.87535522  0.48754924     0.29780
F1279       F  0.56260881  0.85523190  0.02166779    -0.19620
H1280       H  0.60579312  0.81512184  0.99971602     0.18150
H1281       H  0.65351525  0.97844564  0.40893717     0.18150
F1282       F  0.69912206  0.94180225  0.38930649    -0.19610
C1283       C  0.78159942  0.92295915  0.49121434    -0.21040
C1284       C  0.80736956  0.90843815  0.46961647    -0.09080
C1285       C  0.78589570  0.86543057  0.44095459     0.29780
C1286       C  0.74008622  0.84039054  0.43089371    -0.21040
C1287       C  0.71491869  0.85949312  0.44657766    -0.09090
C1288       C  0.73605766  0.89899884  0.48032223     0.29780
F1289       F  0.71382150  0.91545957  0.50317495    -0.19620
H1290       H  0.79727978  0.95492164  0.51497468     0.18150
H1291       H  0.72484192  0.80841900  0.40717757     0.18150
F1292       F  0.80944450  0.84889309  0.42099598    -0.19610
C1293       C  0.63063922  0.82978166  0.34202348    -0.21040
C1294       C  0.66896941  0.84218925  0.36899246    -0.09080
C1295       C  0.70933416  0.86801317  0.34182859     0.29780
C1296       C  0.70825832  0.86551005  0.29231881    -0.21040
C1297       C  0.66757268  0.84081643  0.26597931    -0.09090
C1298       C  0.63027674  0.83119443  0.29218757     0.29780
F1299       F  0.59727029  0.83391930  0.27093554    -0.19620
H1300       H  0.60273579  0.82680705  0.35852002     0.18150
H1301       H  0.74057592  0.88829466  0.27490011     0.18150
F1302       F  0.75001823  0.90325261  0.36071483    -0.19610
C1303       C  0.76123750  0.61562821  0.29566136    -0.21040
C1304       C  0.78715549  0.66078021  0.26565451    -0.09080
C1305       C  0.76749349  0.68898349  0.25492016     0.29780
C1306       C  0.72091734  0.66437406  0.25815180    -0.21040
C1307       C  0.69388922  0.61345369  0.27692432    -0.09090
C1308       C  0.71486443  0.59149080  0.30029393     0.29780
F1309       F  0.69029856  0.04429461  0.32338650    -0.19620
H1310       H  0.77538327  0.59613513  0.31293234     0.18150
H1311       H  0.70581917  0.68383303  0.24292023     0.18150
F1312       F  0.79211353  0.73798907  0.23542518    -0.19610
C1313       C  0.90926347  0.76453508  0.22475784    -0.21040
C1314       C  0.87075795  0.73561003  0.25433023    -0.09080
C1315       C  0.86718590  0.76280321  0.29114025     0.29780
C1316       C  0.89495246  0.81719925  0.29107796    -0.21040
C1317       C  0.92945046  0.84532474  0.25737579    -0.09090
C1318       C  0.93785007  0.81833249  0.22595965     0.29780
F1319       F  0.97192899  0.84432671  0.19381661    -0.19620
H1320       H  0.91687894  0.74641425  0.19876085     0.18150
H1321       H  0.88934331  0.83738862  0.31717478     0.18150
F1322       F  0.83642777  0.73746645  0.32663334    -0.19610
C1323       C  0.88820029  0.65853061  0.28883804    -0.21040
C1324       C  0.84725178  0.64070037  0.26429194    -0.09080
C1325       C  0.82175919  0.58839713  0.25047145     0.29780
C1326       C  0.83998827  0.55910298  0.25354162    -0.21040
C1327       C  0.88359980  0.58026367  0.27074813    -0.09090
C1328       C  0.90649387  0.62867842  0.29157019     0.29780
F1329       F  0.94845717  0.64949762  0.30958820    -0.19620
H1330       H  0.90825725  0.69718521  0.30207746     0.18150
H1331       H  0.82149590  0.52133309  0.23811194     0.18230
F1332       F  0.78198191  0.56818956  0.22716725    -0.19610
C1333       C  0.75979418  0.60531457  0.02648713    -0.21040
C1334       C  0.78948079  0.65757054  0.01005315    -0.09080
C1335       C  0.77033919  0.68075303  0.98335335     0.29780
C1336       C  0.72371839  0.65308981  0.97586372    -0.21040
C1337       C  0.69500937  0.60299617  0.99599717    -0.09090
C1338       C  0.71353445  0.57897663  0.02063423     0.29780
F1339       F  0.68686910  0.02980808  0.03940020    -0.19620
H1340       H  0.77265773  0.58557542  0.04644499     0.18150
H1341       H  0.70983930  0.67181666  0.95611866     0.18150
F1342       F  0.79518853  0.73045892  0.96616074    -0.19610
C1343       C  0.88211073  0.78245547  0.05412598    -0.21040
C1344       C  0.86721921  0.74639956  0.51760895    -0.09080
C1345       C  0.88330748  0.76721189  0.47076466     0.29780
C1346       C  0.91125583  0.82103306  0.46136993    -0.21040
C1347       C  0.92337902  0.85543021  0.49808687    -0.09090
C1348       C  0.90849682  0.83552238  0.04442482     0.29780
F1349       F  0.92094003  0.86758518  0.08120912    -0.19620
H1350       H  0.87477803  0.77116868  0.09130299     0.18150
H1351       H  0.92270701  0.83583699  0.42523621     0.18150
F1352       F  0.87183087  0.73548402  0.43394030    -0.19610
C1353       C  0.86883369  0.60270216  0.46306779    -0.21040
C1354       C  0.91069143  0.61941645  0.48330739    -0.09080
C1355       C  0.93250364  0.66385286  0.51016247     0.29780
C1356       C  0.91041632  0.68763336  0.52057918    -0.21040
C1357       C  0.86487879  0.66549071  0.50751532    -0.09090
C1358       C  0.84632053  0.62560595  0.47409225     0.29780
F1359       F  0.80687861  0.60815423  0.45112482    -0.19620
H1360       H  0.85232408  0.57000970  0.44012648     0.18150
H1361       H  0.92759295  0.72092512  0.54273616     0.18150
F1362       F  0.97450964  0.68336083  0.52750313    -0.19610
C1363       C  0.80188742  0.68110665  0.15892654    -0.21040
C1364       C  0.83023813  0.67246464  0.18771969    -0.09080
C1365       C  0.85775790  0.66160745  0.16214632     0.29780
C1366       C  0.85639999  0.65985967  0.11257484    -0.21040
C1367       C  0.83319842  0.67634530  0.08459107    -0.09090
C1368       C  0.80438724  0.68501294  0.10938823     0.29780
F1369       F  0.77993554  0.70040034  0.08582562    -0.19620
H1370       H  0.77763236  0.68663319  0.17254375     0.18150
H1371       H  0.87585127  0.64758744  0.09732337     0.18150
F1372       F  0.88885210  0.65559349  0.18397273    -0.19610
C1373       C  0.83874124  0.68663617  0.52904648    -0.02220
C1374       C  0.83375495  0.67767100  0.74402550    -0.02220
C1375       C  0.66681227  0.83706808  0.92541714    -0.02220
C1376       C  0.66660305  0.83691035  0.70972520    -0.02220
C1377       C  0.92832742  0.58695025  0.97940641     0.76720
Tb1378     Tb  0.55294427  0.50986910  0.97911538     1.80740
O1379       O  0.91642805  0.55554801  0.94676810    -0.51300
O1380       O  0.88339880  0.94452900  0.94353831    -0.58750
C1381       C  0.55076945  0.61116579  0.96713485     0.92530
O1382       O  0.62595813  0.57909503  0.45530440    -0.58280
Tb1383     Tb  0.95002965  0.51357137  0.97749743     1.78060
O1384       O  0.56301495  0.94337518  0.00346441    -0.58780
O1385       O  0.94273887  0.93961042  0.01179417    -0.77580
O1386       O  0.51491860  0.58545878  0.94325812    -0.76900
O1387       O  0.97946814  0.52317845  0.55526809    -0.62170
C1388       C  0.95117126  0.91201590  0.98912663     0.92120
O1389       O  0.53567241  0.52023152  0.90026952    -0.74110
C1390       C  0.58384140  0.44696132  0.96630540     0.75570
C1391       C  0.85672448  0.94150748  0.97396310     0.76550
O1392       O  0.95302202  0.58380706  0.51037361    -0.59360
O1393       O  0.87652834  0.97283642  0.50675935    -0.51310
O1394       O  0.52640200  0.49702831  0.55734626    -0.77370
O1395       O  0.96546873  0.50129482  0.90052575    -0.61370
C1396       C  0.99982883  0.50957279  0.87901594     0.90340
C1397       C  0.00335654  0.51025963  0.57786383     0.91570
C1398       C  0.64583871  0.57480927  0.49132017     0.75910
O1399       O  0.58622796  0.47880007  0.93487726    -0.50700
O1400       O  0.61938191  0.04118479  0.52221989    -0.51850
O1401       O  0.98408924  0.93298698  0.96064296    -0.64700
O1402       O  0.56201429  0.58793538  0.99616428    -0.65840
C1403       C  0.90654225  0.55574510  0.75701717     0.76720
Tb1404     Tb  0.55791316  0.51127853  0.73114583     1.80740
O1405       O  0.90183167  0.53915904  0.71601834    -0.51300
O1406       O  0.88276931  0.97449651  0.67391155    -0.58750
C1407       C  0.54879322  0.61209718  0.70254015     0.92530
O1408       O  0.62811798  0.59210188  0.73106229    -0.58280
Tb1409     Tb  0.94434168  0.50373813  0.72599488     1.78060
O1410       O  0.59582574  0.97052094  0.74212720    -0.58780
O1411       O  0.93302885  0.92268950  0.74289721    -0.77580
O1412       O  0.50636881  0.58700932  0.70672494    -0.76900
O1413       O  0.96598019  0.50543232  0.80502996    -0.62170
C1414       C  0.95489486  0.90232631  0.75183890     0.92120
O1415       O  0.53092692  0.50260662  0.65288002    -0.74110
C1416       C  0.59686087  0.46110404  0.69944926     0.75570
C1417       C  0.85617500  0.93192069  0.69609469     0.76550
O1418       O  0.93159399  0.54823419  0.78335443    -0.59360
O1419       O  0.87427805  0.92382714  0.73142097    -0.51310
O1420       O  0.53010197  0.50900698  0.80624812    -0.77370
O1421       O  0.97530284  0.51541501  0.65037106    -0.61370
C1422       C  0.00325312  0.50937048  0.63031588     0.90340
C1423       C  0.99846044  0.50778761  0.82684964     0.91570
C1424       C  0.64560148  0.58084385  0.76480783     0.75910
O1425       O  0.57705818  0.47502014  0.67147157    -0.50700
O1426       O  0.61875813  0.03619691  0.78325177    -0.51850
O1427       O  0.99747926  0.92776820  0.75277943    -0.64700
O1428       O  0.57083714  0.59154542  0.70784185    -0.65840
C1429       C  0.58683988  0.75097355  0.71227827    -0.21040
C1430       C  0.63180624  0.77895799  0.69597993    -0.09080
C1431       C  0.64312160  0.75016652  0.66901790     0.29780
C1432       C  0.61569291  0.69592157  0.67026772    -0.21040
C1433       C  0.57425990  0.66886502  0.69387521    -0.09090
C1434       C  0.55877098  0.69713972  0.71193689     0.29780
F1435       F  0.51730833  0.67288989  0.73185598    -0.19620
H1436       H  0.57205668  0.76968408  0.72492190     0.18150
H1437       H  0.62695969  0.67499828  0.65273761     0.18150
F1438       F  0.67983415  0.77333728  0.64037195    -0.19610
C1439       C  0.59913811  0.89221532  0.66011207    -0.21040
C1440       C  0.62050328  0.93757989  0.68574042    -0.09080
C1441       C  0.66246066  0.95581569  0.70642292     0.29780
C1442       C  0.67953340  0.92542242  0.70783034    -0.21040
C1443       C  0.65438402  0.87497443  0.69019483    -0.09090
C1444       C  0.61639562  0.86131054  0.66141527     0.29780
F1445       F  0.59478474  0.81773371  0.63619302    -0.19620
H1446       H  0.56751543  0.87875825  0.64221904     0.18150
H1447       H  0.71052176  0.93924826  0.72723593     0.18150
F1448       F  0.68516431  0.50122471  0.72900531    -0.19610
C1449       C  0.78753341  0.91847807  0.65707216    -0.21040
C1450       C  0.80760407  0.89884121  0.68612208    -0.09080
C1451       C  0.78003446  0.85183002  0.71200357     0.29780
C1452       C  0.73388898  0.82921634  0.71416402    -0.21040
C1453       C  0.71439032  0.85444295  0.69279571    -0.09090
C1454       C  0.74125648  0.89621472  0.65959363     0.29780
F1455       F  0.72391708  0.91697997  0.63054982    -0.19620
H1456       H  0.80806773  0.95342229  0.63489837     0.18150
H1457       H  0.71395336  0.79503086  0.73742497     0.18150
F1458       F  0.79798642  0.83037727  0.73903140    -0.19610
C1459       C  0.56156191  0.69404487  0.93799164    -0.21040
C1460       C  0.57917757  0.66832830  0.96094873    -0.09080
C1461       C  0.62319434  0.69795806  0.97864688     0.29780
C1462       C  0.64985106  0.75162733  0.97000071    -0.21040
C1463       C  0.63454135  0.77793595  0.94155372    -0.09090
C1464       C  0.58790555  0.74765561  0.92979094     0.29780
F1465       F  0.56539141  0.76909801  0.91539842    -0.19620
H1466       H  0.52653187  0.67269155  0.92740782     0.18150
H1467       H  0.68249102  0.77158984  0.98660265     0.18150
F1468       F  0.64100352  0.67531962  0.50402695    -0.19610
C1469       C  0.61581662  0.84989615  0.97845653    -0.21040
C1470       C  0.64825987  0.86841449  0.94172756    -0.09080
C1471       C  0.66364569  0.91752548  0.91971847     0.29780
C1472       C  0.64204965  0.94196812  0.92800971    -0.21040
C1473       C  0.60644294  0.92023574  0.96048372    -0.09090
C1474       C  0.59489071  0.87534287  0.98754495     0.29780
F1475       F  0.56263097  0.85525136  0.52168115    -0.19620
H1476       H  0.60581357  0.81514009  0.49972583     0.18150
H1477       H  0.65352336  0.97845126  0.90895586     0.18150
F1478       F  0.69913069  0.94180703  0.88932795    -0.19610
C1479       C  0.78159373  0.92294980  0.99122107    -0.21040
C1480       C  0.80736387  0.90842974  0.96962147    -0.09080
C1481       C  0.78588969  0.86542253  0.94095907     0.29780
C1482       C  0.74008036  0.84038348  0.93089783    -0.21040
C1483       C  0.71491368  0.85948709  0.94658180    -0.09090
C1484       C  0.73605202  0.89899012  0.98032890     0.29780
F1485       F  0.71381514  0.91544847  0.00318399    -0.19620
H1486       H  0.79727403  0.95491114  0.01498271     0.18150
H1487       H  0.72483589  0.80841279  0.90718070     0.18150
F1488       F  0.80943818  0.84888506  0.92099972    -0.19610
C1489       C  0.63064183  0.82979662  0.84202503    -0.21040
C1490       C  0.66896873  0.84219326  0.86899492    -0.09080
C1491       C  0.70933436  0.86801425  0.84183268     0.29780
C1492       C  0.70825964  0.86551304  0.79232268    -0.21040
C1493       C  0.66757468  0.84082455  0.76598235    -0.09090
C1494       C  0.63028072  0.83121049  0.79218913     0.29780
F1495       F  0.59727821  0.83394212  0.77093513    -0.19620
H1496       H  0.60274161  0.82683009  0.85852139     0.18150
H1497       H  0.74057775  0.88829439  0.77490485     0.18150
F1498       F  0.75001880  0.90324947  0.86072071    -0.19610
C1499       C  0.76124001  0.61562965  0.79566233    -0.21040
C1500       C  0.78715855  0.66078261  0.76565674    -0.09080
C1501       C  0.76749636  0.68898572  0.75492229     0.29780
C1502       C  0.72092008  0.66437606  0.75815343    -0.21040
C1503       C  0.69389174  0.61345535  0.77692515    -0.09090
C1504       C  0.71486681  0.59149191  0.80029409     0.29780
F1505       F  0.69030073  0.04429502  0.82338546    -0.19620
H1506       H  0.77538555  0.59613609  0.81293285     0.18150
H1507       H  0.70582203  0.68383523  0.74292203     0.18150
F1508       F  0.79211633  0.73799114  0.73542695    -0.19610
C1509       C  0.90927044  0.76453695  0.72476726    -0.21040
C1510       C  0.87076202  0.73561267  0.75433576    -0.09080
C1511       C  0.86718753  0.76280658  0.79114324     0.29780
C1512       C  0.89495428  0.81720262  0.79108046    -0.21040
C1513       C  0.92945489  0.84532736  0.75738095    -0.09090
C1514       C  0.93785723  0.81833441  0.72596880     0.29780
F1515       F  0.97193898  0.84432798  0.69382892    -0.19620
H1516       H  0.91688809  0.74641567  0.69877314     0.18150
H1517       H  0.88934312  0.83739261  0.81717467     0.18150
F1518       F  0.83642714  0.73747067  0.82663440    -0.19610
C1519       C  0.88820159  0.65852993  0.78884132    -0.21040
C1520       C  0.84725424  0.64070195  0.76429360    -0.09080
C1521       C  0.82176180  0.58839982  0.75047004     0.29780
C1522       C  0.83999041  0.55910517  0.75353858    -0.21040
C1523       C  0.88360116  0.58026410  0.77074679    -0.09090
C1524       C  0.90649462  0.62867715  0.79157207     0.29780
F1525       F  0.94845688  0.64949431  0.80959231    -0.19620
H1526       H  0.90825809  0.69718340  0.80208330     0.18150
H1527       H  0.82149830  0.52133640  0.73810675     0.18230
F1528       F  0.78198530  0.56819419  0.72716471    -0.19610
C1529       C  0.75979686  0.60531947  0.52649531    -0.21040
C1530       C  0.78948413  0.65757372  0.51005672    -0.09080
C1531       C  0.77034308  0.68075412  0.48335232     0.29780
C1532       C  0.72372229  0.65309090  0.47586266    -0.21040
C1533       C  0.69501268  0.60299952  0.49600065    -0.09090
C1534       C  0.71353718  0.57898199  0.52064280     0.29780
F1535       F  0.68687140  0.02981573  0.53941384    -0.19620
H1536       H  0.77265993  0.58558152  0.54645632     0.18150
H1537       H  0.70984374  0.67181599  0.45611329     0.18150
F1538       F  0.79519326  0.73045753  0.46615328    -0.19610
C1539       C  0.88211046  0.78246025  0.55412608    -0.21040
C1540       C  0.86721628  0.74639548  0.01760776    -0.09080
C1541       C  0.88330213  0.76720826  0.97076302     0.29780
C1542       C  0.91125066  0.82102942  0.96136875    -0.21040
C1543       C  0.92337654  0.85542607  0.99808674    -0.09090
C1544       C  0.90849640  0.83552701  0.54442437     0.29780
F1545       F  0.92093675  0.86759015  0.58120789    -0.19620
H1546       H  0.87477540  0.77117440  0.59130289     0.18150
H1547       H  0.92269969  0.83583379  0.92523461     0.18150
F1548       F  0.87182266  0.73548076  0.93393777    -0.19610
C1549       C  0.86883206  0.60270219  0.96306147    -0.21040
C1550       C  0.91068733  0.61941204  0.98330552    -0.09080
C1551       C  0.93249847  0.66384591  0.01016414     0.29780
C1552       C  0.91041188  0.68762739  0.02058020    -0.21040
C1553       C  0.86487568  0.66548760  0.00751255    -0.09090
C1554       C  0.84631951  0.62560693  0.97408550     0.29780
F1555       F  0.80688052  0.60816082  0.95111365    -0.19620
H1556       H  0.85232378  0.57001249  0.94011693     0.18150
H1557       H  0.92758741  0.72091685  0.04274003     0.18150
F1558       F  0.97450235  0.68334995  0.02750944    -0.19610
C1559       C  0.80189094  0.68110929  0.65892954    -0.21040
C1560       C  0.83024374  0.67247065  0.68772260    -0.09080
C1561       C  0.85776561  0.66161660  0.66214920     0.29780
C1562       C  0.85640855  0.65986981  0.61257768    -0.21040
C1563       C  0.83320402  0.67635147  0.58459394    -0.09090
C1564       C  0.80439096  0.68501611  0.60939127     0.29780
F1565       F  0.77993705  0.70040060  0.58582882    -0.19620
H1566       H  0.77763373  0.68663199  0.67254650     0.18150
H1567       H  0.87586212  0.64760065  0.59732630     0.18150
F1568       F  0.88885963  0.65560252  0.68397598    -0.19610
loop_ 
_geom_bond_atom_site_label_1 
_geom_bond_atom_site_label_2 
_geom_bond_distance 
_geom_bond_site_symmetry_2 
_ccdc_geom_bond_type 
C1          C158   1.560       .  S
C1          C191   1.571       .  S
C1          C364   1.563       .  S
C1          C377   1.566       .  S
C2          C128   1.576       .  S
C2          C138   1.567       .  S
C2          C148   1.559       .  S
C2          C188   1.592       .  S
C3           C91   1.580       .  S
C3           C98   1.551       .  S
C3          C111   1.567       .  S
C3          C118   1.583       .  S
C4           C58   1.578       .  S
C4           C71   1.551       .  S
C4           C81   1.562       .  S
C4          C121   1.588       .  S
C5            O7   1.258       .  A
C5          O216   1.263       .  A
C5          C178   1.475       .  S
Tb6          O17   2.336       .  S
Tb6          O30   2.343       .  S
Tb6          O27   2.329   1_545  S
Tb6         O616   2.335       .  S
Tb6        O1205   2.354   1_445  S
Tb6         O404   2.362   1_545  S
Tb6         O218   2.344   1_545  S
Tb6         O206   2.364       .  S
O7          Tb11   2.347       .  S
O8           C19   1.263       .  A
O8         Tb403   2.362       .  S
C9           O14   1.264       .  A
C9           O30   1.265       .  A
C9           C88   1.480       .  S
O10          C26   1.265       .  A
O10        Tb202   2.364       .  S
Tb11         O23   2.349       .  S
Tb11        O400   2.362   1_545  S
Tb11        O211   2.356       .  S
Tb11        O216   2.368       .  S
Tb11        O798   2.330       .  S
Tb11        O609   2.349   1_545  S
Tb11        O405   2.329   1_545  S
O12         C410   1.265       .  A
O12        Tb398   2.362       .  S
O13          C16   1.265       .  A
O13        Tb403   2.329       .  S
O14        Tb795   2.330   1_455  S
O15          C25   1.277       .  A
O15        Tb207   2.356   1_554  S
C16          O29   1.264       .  A
C16         C171   1.473       .  S
O17         C808   1.273   1_455  A
C18          O27   1.261       .  A
C18         O404   1.265       .  A
C18         C493   1.470       .  S
C19         O217   1.259       .  A
C19         C108   1.474       .  S
O20         C201   1.263   1_554  A
O20        Tb207   2.368   1_554  S
O21         C215   1.259   1_554  A
O21        Tb599   2.349   1_554  S
O22         C809   1.274   1_565  A
O22        Tb202   2.344   1_564  S
O23          C24   1.275       .  A
C24         O801   1.273       .  A
C24          C51   1.467       .  S
C25         O806   1.274   1_545  A
C25          C50   1.471       .  S
C26         O420   1.262   1_556  A
C26         C161   1.472       .  S
O28         C418   1.262   1_554  A
O28        Tb594   2.335   1_554  S
O29       Tb1182   2.354       .  S
C31          O46   1.261       .  A
C31          O33   1.255       .  A
C31         C151   1.473       .  S
Tb32         O48   2.340       .  S
Tb32         O43   2.342       .  S
Tb32         O36   2.364       .  S
Tb32         O56   2.336       .  S
Tb32         O53   2.387   1_545  S
Tb32        O446   2.355       .  S
Tb32       O1231   2.332   1_445  S
Tb32        O430   2.333   1_545  S
O33         Tb37   2.338       .  S
O34          C45   1.261       .  A
O34        Tb429   2.355       .  S
C35          O40   1.270       .  A
C35          O56   1.270       .  A
C35          C61   1.478       .  S
O36          C52   1.262       .  A
Tb37         O41   2.323       .  S
Tb37         O46   2.392       .  S
Tb37         O49   2.341       .  S
Tb37        O426   2.355   1_545  S
Tb37        O824   2.332       .  S
Tb37        O439   2.349   1_545  S
Tb37        O431   2.349   1_545  S
O38         C436   1.255       .  A
O38        Tb424   2.333       .  S
O39          C42   1.271       .  A
O39        Tb429   2.349       .  S
O40        Tb821   2.332   1_455  S
O41          C51   1.268       .  A
C42          O55   1.268       .  A
C42         C141   1.476       .  S
O43         C834   1.272       .  A
C44          O53   1.260       .  A
C44         O430   1.255       .  A
C44         C460   1.468       .  S
C45          O47   1.261       .  A
C45          C78   1.473       .  S
O47        Tb429   2.349       .  S
O48         C835   1.271   1_455  A
O49          C50   1.272       .  A
C50         O827   1.272       .  A
C51         O832   1.271       .  A
C52         O446   1.259       .  A
C52         C131   1.477       .  S
O54         C444   1.259       .  A
O54        Tb424   2.355       .  S
O55       Tb1208   2.332       .  S
C57          C58   1.414       .  A
C57          C62   1.393       .  A
C57          H64   1.063       .  S
C58          C59   1.430       .  A
C59          C60   1.401       .  A
C59          F66   1.357       .  S
C60          C61   1.399       .  A
C60          H65   1.083       .  S
C61          C62   1.399       .  A
C62          F63   1.358       .  S
C67          C68   1.402       .  A
C67          C72   1.407       .  A
C67          H74   1.083       .  S
C68         C436   1.468       .  S
C68          C69   1.398       .  A
C69          C70   1.387       .  A
C69         F468   1.357       .  S
C70          C71   1.414       .  A
C70          H75   1.083       .  S
C71          C72   1.420       .  A
C72          F73   1.356       .  S
F76         C461   1.357   1_545  S
C77          C78   1.403       .  A
C77          C82   1.399       .  A
C77          H84   1.084       .  S
C78          C79   1.401       .  A
C79          C80   1.392       .  A
C79          F86   1.357       .  S
C80          C81   1.419       .  A
C80          H85   1.084       .  S
C81          C82   1.419       .  A
C82          F83   1.356       .  S
C87          C88   1.397       .  A
C87          C92   1.394       .  A
C87          H94   1.084       .  S
C88          C89   1.401       .  A
C89          C90   1.397       .  A
C89         F292   1.357       .  S
C90          C91   1.423       .  A
C90          H95   1.077       .  S
C91          C92   1.426       .  A
C92          F93   1.350       .  S
F96         C285   1.357   1_554  S
C97          C98   1.417       .  A
C97         C102   1.401       .  A
C97         H300   1.082       .  S
C98          C99   1.416       .  A
C99         C100   1.389       .  A
C99         F106   1.356       .  S
C100        C101   1.399       .  A
C100        H105   1.084       .  S
C101        C410   1.470       .  S
C101        C102   1.402       .  A
C102        F299   1.357       .  S
F103        C298   1.357   1_554  S
H104        C293   1.082       .  S
C107        C108   1.401       .  A
C107        C112   1.397       .  A
C107        H114   1.084       .  S
C108        C109   1.400       .  A
C109        C110   1.397       .  A
C109        F116   1.358       .  S
C110        C111   1.422       .  A
C110        H115   1.083       .  S
C111        C112   1.423       .  A
C112        F113   1.356       .  S
C117        C118   1.411       .  A
C117        C122   1.397       .  A
C117        H124   1.071       .  S
C118        C119   1.423       .  A
C119        C120   1.394       .  A
C119        F126   1.356       .  S
C120        C121   1.418       .  A
C120        H125   1.079       .  S
C121        C122   1.418       .  A
C122        F123   1.354       .  S
C127        C128   1.418       .  A
C127        C132   1.398       .  A
C127        H134   1.079       .  S
C128        C129   1.421       .  A
C129        C130   1.399       .  A
C129        F136   1.358       .  S
C130        C131   1.399       .  A
C130        H135   1.083       .  S
C131        C132   1.404       .  A
C132        F525   1.358       .  S
F133        C524   1.358       .  S
C137        C138   1.416       .  A
C137        C142   1.394       .  A
C137        H144   1.075       .  S
C138        C139   1.423       .  A
C139        C140   1.406       .  A
C139        F146   1.357       .  S
C140        C141   1.401       .  A
C140        H145   1.083       .  S
C141        C142   1.399       .  A
C142        F143   1.358       .  S
C147        C148   1.418       .  A
C147        C152   1.407       .  A
C147        H154   1.081       .  S
C148        C149   1.422       .  A
C149        C150   1.389       .  A
C149        F156   1.358       .  S
C150        C151   1.397       .  A
C150        H155   1.085       .  S
C151        C152   1.404       .  A
C152        F153   1.357       .  S
C157        C158   1.417       .  A
C157        C162   1.389       .  A
C157        H164   1.084       .  S
C158        C159   1.424   1_554  A
C159        C160   1.404       .  A
C159        F166   1.353       .  S
C160        C161   1.400       .  A
C160        H165   1.083       .  S
C161        C162   1.400   1_556  A
C162        F555   1.359       .  S
F163        C554   1.359       .  S
C167        C172   1.386       .  A
C167        C364   1.420       .  A
C167        H174   1.075       .  S
C168        C197   1.563       .  S
C168        C169   1.421       .  A
C168        C363   1.420       .  A
C169        C170   1.406       .  A
C169        F176   1.358       .  S
C170        C171   1.403       .  A
C170        H175   1.084       .  S
C171        C368   1.396       .  A
C172        C367   1.396   1_554  A
C172        F173   1.359       .  S
C177        C178   1.399       .  A
C177        C182   1.395       .  A
C177        H184   1.084       .  S
C178        C179   1.400       .  A
C179        C180   1.401       .  A
C179        F186   1.357       .  S
C180        C181   1.418       .  A
C180        H185   1.083       .  S
C181        C197   1.566       .  S
C181        C182   1.424       .  A
C182        F183   1.355       .  S
C187        C188   1.414       .  A
C187        C192   1.391       .  A
C187        H194   1.063       .  S
C188        C189   1.432       .  A
C189        C190   1.394       .  A
C189        F196   1.357       .  S
C190        C191   1.406       .  A
C190        H195   1.074       .  S
C191        C192   1.416       .  A
C192        F193   1.358       .  S
C197        C354   1.560       .  S
C197        C387   1.571       .  S
C198        C324   1.576       .  S
C198        C334   1.567       .  S
C198        C344   1.559       .  S
C198        C384   1.592       .  S
C199        C287   1.580       .  S
C199        C294   1.551       .  S
C199        C307   1.567       .  S
C199        C314   1.583       .  S
C200        C254   1.578       .  S
C200        C267   1.551       .  S
C200        C277   1.562       .  S
C200        C317   1.588       .  S
C201        O203   1.258       .  A
C201        C374   1.475       .  S
Tb202       O420   2.335   1_556  S
Tb202      O1401   2.354   1_445  S
Tb202       O600   2.362   1_546  S
Tb202       O213   2.336       .  S
Tb202       O226   2.343       .  S
Tb202       O223   2.329   1_545  S
O203       Tb207   2.347       .  S
O204        C215   1.263       .  A
O204       Tb599   2.362       .  S
C205        O210   1.264       .  A
C205        O226   1.265       .  A
C205        C284   1.480       .  S
O206        C222   1.265       .  A
Tb207       O596   2.362   1_545  S
Tb207       O994   2.330       .  S
Tb207       O413   2.349   1_546  S
Tb207       O219   2.349       .  S
Tb207       O601   2.329   1_546  S
O208        C606   1.265   1_554  A
O208       Tb594   2.362   1_554  S
O209        C212   1.265   1_554  A
O209       Tb599   2.329   1_554  S
O210       Tb991   2.330   1_455  S
O211        C221   1.277       .  A
C212        O225   1.264       .  A
C212        C367   1.473       .  S
O213       C1004   1.273   1_455  A
C214        O600   1.265   1_556  A
C214        O223   1.261       .  A
C214        C689   1.470       .  S
C215        C304   1.474       .  S
O217       Tb403   2.349       .  S
O218       C1005   1.274   1_565  A
O219        C220   1.275       .  A
C220        O997   1.273       .  A
C220        C247   1.467       .  S
C221       O1002   1.274   1_545  A
C221        C246   1.471       .  S
C222        O616   1.262       .  A
C222        C357   1.472       .  S
O224        C614   1.262       .  A
O224       Tb398   2.335       .  S
O225      Tb1378   2.354       .  S
C227        O242   1.261       .  A
C227        O229   1.255       .  A
C227        C347   1.473       .  S
Tb228       O642   2.355       .  S
Tb228      O1427   2.332   1_445  S
Tb228       O626   2.333   1_545  S
Tb228       O244   2.340       .  S
Tb228       O239   2.342       .  S
Tb228       O232   2.364       .  S
Tb228       O252   2.336       .  S
Tb228       O249   2.387   1_545  S
O229       Tb233   2.338       .  S
O230        C241   1.261       .  A
O230       Tb625   2.355       .  S
C231        O236   1.270       .  A
C231        O252   1.270       .  A
C231        C257   1.478       .  S
O232        C248   1.262       .  A
Tb233       O622   2.355   1_545  S
Tb233       O237   2.323       .  S
Tb233       O242   2.392       .  S
Tb233      O1020   2.332       .  S
Tb233       O635   2.349   1_545  S
Tb233       O245   2.341       .  S
Tb233       O627   2.349   1_545  S
O234        C632   1.255       .  A
O234       Tb620   2.333       .  S
O235        C238   1.271       .  A
O235       Tb625   2.349       .  S
O236      Tb1017   2.332   1_455  S
O237        C247   1.268       .  A
C238        O251   1.268       .  A
C238        C337   1.476       .  S
O239       C1030   1.272       .  A
C240        O626   1.255       .  A
C240        O249   1.261       .  A
C240        C656   1.468       .  S
C241        O243   1.261       .  A
C241        C274   1.473       .  S
O243       Tb625   2.349       .  S
O244       C1031   1.271   1_455  A
O245        C246   1.272       .  A
C246       O1023   1.272       .  A
C247       O1028   1.271       .  A
C248        O642   1.259       .  A
C248        C327   1.477       .  S
O250        C640   1.259       .  A
O250       Tb620   2.355       .  S
O251      Tb1404   2.332       .  S
C253        C254   1.414       .  A
C253        C258   1.393       .  A
C253        H260   1.063       .  S
C254        C255   1.430       .  A
C255        C256   1.401       .  A
C255        F262   1.357       .  S
C256        C257   1.399       .  A
C256        H261   1.083       .  S
C257        C258   1.399       .  A
C258        F259   1.358       .  S
C263        C264   1.402       .  A
C263        C268   1.407       .  A
C263        H270   1.083       .  S
C264        C632   1.468       .  S
C264        C265   1.398       .  A
C265        C266   1.387       .  A
C265        F664   1.357       .  S
C266        C267   1.414       .  A
C266        H271   1.083       .  S
C267        C268   1.420       .  A
C268        F269   1.356       .  S
F272        C657   1.357   1_545  S
C273        C274   1.403       .  A
C273        C278   1.399       .  A
C273        H280   1.084       .  S
C274        C275   1.401       .  A
C275        C276   1.392       .  A
C275        F282   1.357       .  S
C276        C277   1.419       .  A
C276        H281   1.084       .  S
C277        C278   1.419       .  A
C278        F279   1.356       .  S
C283        C284   1.397       .  A
C283        C288   1.394       .  A
C283        H290   1.084       .  S
C284        C285   1.401       .  A
C285        C286   1.397       .  A
C286        C287   1.423       .  A
C286        H291   1.077       .  S
C287        C288   1.426       .  A
C288        F289   1.350       .  S
C293        C294   1.417       .  A
C293        C298   1.401       .  A
C294        C295   1.416       .  A
C295        C296   1.389       .  A
C295        F302   1.356       .  S
C296        C297   1.399       .  A
C296        H301   1.084       .  S
C297        C606   1.470       .  S
C297        C298   1.402       .  A
C303        C304   1.401       .  A
C303        C308   1.397       .  A
C303        H310   1.084   1_556  S
C304        C305   1.400       .  A
C305        C306   1.397       .  A
C305        F312   1.358       .  S
C306        C307   1.422       .  A
C306        H311   1.083       .  S
C307        C308   1.423       .  A
C308        F309   1.356   1_556  S
C313        C314   1.411       .  A
C313        C318   1.397       .  A
C313        H320   1.071       .  S
C314        C315   1.423       .  A
C315        C316   1.394       .  A
C315        F322   1.356       .  S
C316        C317   1.418       .  A
C316        H321   1.079       .  S
C317        C318   1.418       .  A
C318        F319   1.354       .  S
C323        C324   1.418       .  A
C323        C328   1.398       .  A
C323        H330   1.079       .  S
C324        C325   1.421       .  A
C325        C326   1.399       .  A
C325        F332   1.358       .  S
C326        C327   1.399       .  A
C326        H331   1.083       .  S
C327        C328   1.404       .  A
C328        F721   1.358       .  S
F329        C720   1.358       .  S
C333        C334   1.416       .  A
C333        C338   1.394       .  A
C333        H340   1.075       .  S
C334        C335   1.423       .  A
C335        C336   1.406       .  A
C335        F342   1.357       .  S
C336        C337   1.401       .  A
C336        H341   1.083       .  S
C337        C338   1.399       .  A
C338        F339   1.358       .  S
C343        C344   1.418       .  A
C343        C348   1.407       .  A
C343        H350   1.081       .  S
C344        C345   1.422       .  A
C345        C346   1.389       .  A
C345        F352   1.358       .  S
C346        C347   1.397       .  A
C346        H351   1.085       .  S
C347        C348   1.404       .  A
C348        F349   1.357       .  S
C353        C354   1.417       .  A
C353        C358   1.389       .  A
C353        H360   1.084       .  S
C354        C355   1.424       .  A
C355        C356   1.404       .  A
C355        F362   1.353       .  S
C356        C357   1.400       .  A
C356        H361   1.083       .  S
C357        C358   1.400       .  A
C358        F751   1.359       .  S
F359        C750   1.359       .  S
C363        C368   1.386       .  A
C363        H370   1.075       .  S
C364        C365   1.421   1_554  A
C365        C366   1.406       .  A
C365        F372   1.358       .  S
C366        C367   1.403       .  A
C366        H371   1.084       .  S
C368        F369   1.359       .  S
C373        C374   1.399       .  A
C373        C378   1.395       .  A
C373        H380   1.084       .  S
C374        C375   1.400   1_556  A
C375        C376   1.401       .  A
C375        F382   1.357       .  S
C376        C377   1.418       .  A
C376        H381   1.083       .  S
C377        C378   1.424   1_554  A
C378        F379   1.355       .  S
C383        C384   1.414       .  A
C383        C388   1.391       .  A
C383        H390   1.063       .  S
C384        C385   1.432       .  A
C385        C386   1.394       .  A
C385        F392   1.357       .  S
C386        C387   1.406       .  A
C386        H391   1.074       .  S
C387        C388   1.416       .  A
C388        F389   1.358       .  S
C393        C550   1.560       .  S
C393        C756   1.563       .  S
C393        C769   1.566       .  S
C393        C583   1.571       .  S
C394        C520   1.576       .  S
C394        C530   1.567       .  S
C394        C540   1.559       .  S
C394        C580   1.592       .  S
C395        C483   1.580       .  S
C395        C490   1.551       .  S
C395        C503   1.567       .  S
C395        C510   1.583       .  S
C396        C450   1.578       .  S
C396        C463   1.551       .  S
C396        C473   1.562       .  S
C396        C513   1.588       .  S
C397        O608   1.263       .  A
C397        O399   1.258       .  A
C397        C570   1.475       .  S
Tb398       O813   2.354   1_455  S
Tb398       O610   2.344       .  S
Tb398       O409   2.336       .  S
Tb398       O598   2.364       .  S
Tb398       O422   2.343       .  S
Tb398       O419   2.329       .  S
O399       Tb403   2.347       .  S
O400        C411   1.263       .  A
C401        O406   1.264       .  A
C401        O422   1.265       .  A
C401        C480   1.480       .  S
O402        C418   1.265       .  A
O402       Tb594   2.364       .  S
Tb403       O603   2.356       .  S
Tb403       O608   2.368       .  S
Tb403      O1190   2.330       .  S
Tb403       O415   2.349       .  S
O405        C408   1.265       .  A
O406      Tb1187   2.330   1_455  S
O407        C417   1.277       .  A
O407       Tb599   2.356   1_554  S
C408        O421   1.264       .  A
C408        C563   1.473       .  S
O409       C1200   1.273   1_455  A
C410        O419   1.261       .  A
C411        O609   1.259       .  A
C411        C500   1.474       .  S
O412        C593   1.263   1_554  A
O412       Tb599   2.368   1_554  S
O413        C607   1.259   1_554  A
O414       C1201   1.274       .  A
O414       Tb594   2.344   1_554  S
O415        C416   1.275       .  A
C416       O1193   1.273       .  A
C416        C443   1.467       .  S
C417       O1198   1.274       .  A
C417        C442   1.471       .  S
C418        C553   1.472       .  S
O421       Tb790   2.354   1_565  S
C423        O438   1.261       .  A
C423        O425   1.255       .  A
C423        C543   1.473       .  S
Tb424       O839   2.332   1_455  S
Tb424       O440   2.340       .  S
Tb424       O435   2.342       .  S
Tb424       O428   2.364       .  S
Tb424       O448   2.336       .  S
Tb424       O445   2.387       .  S
O425       Tb429   2.338       .  S
O426        C437   1.261       .  A
C427        O432   1.270       .  A
C427        O448   1.270       .  A
C427        C453   1.478       .  S
O428        C444   1.262       .  A
Tb429       O433   2.323       .  S
Tb429       O438   2.392       .  S
Tb429      O1216   2.332       .  S
Tb429       O441   2.341       .  S
O431        C434   1.271       .  A
O432      Tb1213   2.332   1_455  S
O433        C443   1.268       .  A
C434        O447   1.268       .  A
C434        C533   1.476       .  S
O435       C1226   1.272       .  A
C436        O445   1.260       .  A
C437        O439   1.261       .  A
C437        C470   1.473       .  S
O440       C1227   1.271   1_455  A
O441        C442   1.272       .  A
C442       O1219   1.272       .  A
C443       O1224   1.271       .  A
C444        C523   1.477       .  S
O447       Tb816   2.332   1_565  S
C449        C450   1.414       .  A
C449        C454   1.393       .  A
C449        H456   1.063       .  S
C450        C451   1.430       .  A
C451        C452   1.401       .  A
C451        F458   1.357       .  S
C452        C453   1.399       .  A
C452        H457   1.083       .  S
C453        C454   1.399       .  A
C454        F455   1.358       .  S
C459        C460   1.402       .  A
C459        C464   1.407       .  A
C459        H466   1.083       .  S
C460        C461   1.398       .  A
C461        C462   1.387       .  A
C462        C463   1.414       .  A
C462        H467   1.083       .  S
C463        C464   1.420       .  A
C464        F465   1.356       .  S
C469        C470   1.403       .  A
C469        C474   1.399       .  A
C469        H476   1.084       .  S
C470        C471   1.401       .  A
C471        C472   1.392       .  A
C471        F478   1.357       .  S
C472        C473   1.419       .  A
C472        H477   1.084       .  S
C473        C474   1.419       .  A
C474        F475   1.356       .  S
C479        C480   1.397       .  A
C479        C484   1.394       .  A
C479        H486   1.084       .  S
C480        C481   1.401       .  A
C481        C482   1.397       .  A
C481        F684   1.357       .  S
C482        C483   1.423       .  A
C482        H487   1.077       .  S
C483        C484   1.426       .  A
C484        F485   1.350       .  S
F488        C677   1.357   1_554  S
C489        C490   1.417       .  A
C489        C494   1.401       .  A
C489        H692   1.082       .  S
C490        C491   1.416       .  A
C491        C492   1.389       .  A
C491        F498   1.356       .  S
C492        C493   1.399       .  A
C492        H497   1.084       .  S
C493        C494   1.402       .  A
C494        F691   1.357       .  S
F495        C690   1.357   1_554  S
H496        C685   1.082       .  S
C499        C500   1.401       .  A
C499        C504   1.397       .  A
C499        H506   1.084       .  S
C500        C501   1.400       .  A
C501        C502   1.397       .  A
C501        F508   1.358       .  S
C502        C503   1.422       .  A
C502        H507   1.083       .  S
C503        C504   1.423       .  A
C504        F505   1.356       .  S
C509        C510   1.411       .  A
C509        C514   1.397       .  A
C509        H516   1.071       .  S
C510        C511   1.423       .  A
C511        C512   1.394       .  A
C511        F518   1.356       .  S
C512        C513   1.418       .  A
C512        H517   1.079       .  S
C513        C514   1.418       .  A
C514        F515   1.354       .  S
C519        C520   1.418       .  A
C519        C524   1.398       .  A
C519        H526   1.079       .  S
C520        C521   1.421       .  A
C521        C522   1.399       .  A
C521        F528   1.358       .  S
C522        C523   1.399       .  A
C522        H527   1.083       .  S
C523        C524   1.404       .  A
C529        C530   1.416       .  A
C529        C534   1.394       .  A
C529        H536   1.075       .  S
C530        C531   1.423       .  A
C531        C532   1.406       .  A
C531        F538   1.357       .  S
C532        C533   1.401       .  A
C532        H537   1.083       .  S
C533        C534   1.399       .  A
C534        F535   1.358       .  S
C539        C540   1.418       .  A
C539        C544   1.407       .  A
C539        H546   1.081       .  S
C540        C541   1.422       .  A
C541        C542   1.389       .  A
C541        F548   1.358       .  S
C542        C543   1.397       .  A
C542        H547   1.085       .  S
C543        C544   1.404       .  A
C544        F545   1.357       .  S
C549        C550   1.417       .  A
C549        C554   1.389       .  A
C549        H556   1.084       .  S
C550        C551   1.424   1_554  A
C551        C552   1.404       .  A
C551        F558   1.353       .  S
C552        C553   1.400       .  A
C552        H557   1.083       .  S
C553        C554   1.400   1_556  A
C559        C756   1.420       .  A
C559        C564   1.386       .  A
C559        H566   1.075       .  S
C560        C589   1.563       .  S
C560        C755   1.420       .  A
C560        C561   1.421       .  A
C561        C562   1.406       .  A
C561        F568   1.358       .  S
C562        C563   1.403       .  A
C562        H567   1.084       .  S
C563        C760   1.396       .  A
C564        C759   1.396   1_554  A
C564        F565   1.359       .  S
C569        C570   1.399       .  A
C569        C574   1.395       .  A
C569        H576   1.084       .  S
C570        C571   1.400       .  A
C571        C572   1.401       .  A
C571        F578   1.357       .  S
C572        C573   1.418       .  A
C572        H577   1.083       .  S
C573        C589   1.566       .  S
C573        C574   1.424       .  A
C574        F575   1.355       .  S
C579        C580   1.414       .  A
C579        C584   1.391       .  A
C579        H586   1.063       .  S
C580        C581   1.432       .  A
C581        C582   1.394       .  A
C581        F588   1.357       .  S
C582        C583   1.406       .  A
C582        H587   1.074       .  S
C583        C584   1.416       .  A
C584        F585   1.358       .  S
C589        C746   1.560       .  S
C589        C779   1.571       .  S
C590        C716   1.576       .  S
C590        C726   1.567       .  S
C590        C736   1.559       .  S
C590        C776   1.592       .  S
C591        C679   1.580       .  S
C591        C686   1.551       .  S
C591        C699   1.567       .  S
C591        C706   1.583       .  S
C592        C646   1.578       .  S
C592        C659   1.551       .  S
C592        C669   1.562       .  S
C592        C709   1.588       .  S
C593        O595   1.258       .  A
C593        C766   1.475       .  S
Tb594      O1009   2.354   1_455  S
Tb594       O605   2.336       .  S
Tb594       O618   2.343       .  S
Tb594       O615   2.329       .  S
O595       Tb599   2.347       .  S
O596        C607   1.263       .  A
C597        O602   1.264       .  A
C597        O618   1.265       .  A
C597        C676   1.480       .  S
O598        C614   1.265       .  A
Tb599      O1386   2.330       .  S
Tb599       O611   2.349       .  S
O601        C604   1.265   1_554  A
O602      Tb1383   2.330   1_455  S
O603        C613   1.277       .  A
C604        O617   1.264       .  A
C604        C759   1.473       .  S
O605       C1396   1.273   1_455  A
C606        O615   1.261       .  A
C607        C696   1.474       .  S
O610       C1397   1.274       .  A
O611        C612   1.275       .  A
C612       O1389   1.273       .  A
C612        C639   1.467       .  S
C613       O1394   1.274       .  A
C613        C638   1.471       .  S
C614        C749   1.472       .  S
O617       Tb986   2.354   1_565  S
C619        O634   1.261       .  A
C619        O621   1.255       .  A
C619        C739   1.473       .  S
Tb620      O1035   2.332   1_455  S
Tb620       O636   2.340       .  S
Tb620       O631   2.342       .  S
Tb620       O624   2.364       .  S
Tb620       O644   2.336       .  S
Tb620       O641   2.387       .  S
O621       Tb625   2.338       .  S
O622        C633   1.261       .  A
C623        O628   1.270       .  A
C623        O644   1.270       .  A
C623        C649   1.478       .  S
O624        C640   1.262       .  A
Tb625       O629   2.323       .  S
Tb625       O634   2.392       .  S
Tb625      O1412   2.332       .  S
Tb625       O637   2.341       .  S
O627        C630   1.271       .  A
O628      Tb1409   2.332   1_455  S
O629        C639   1.268       .  A
C630        O643   1.268       .  A
C630        C729   1.476       .  S
O631       C1422   1.272       .  A
C632        O641   1.261       .  A
C633        O635   1.261       .  A
C633        C666   1.473       .  S
O636       C1423   1.271   1_455  A
O637        C638   1.272       .  A
C638       O1415   1.272       .  A
C639       O1420   1.271       .  A
C640        C719   1.477       .  S
O643      Tb1012   2.332   1_565  S
C645        C646   1.414       .  A
C645        C650   1.393       .  A
C645        H652   1.063       .  S
C646        C647   1.430       .  A
C647        C648   1.401       .  A
C647        F654   1.357       .  S
C648        C649   1.399       .  A
C648        H653   1.083       .  S
C649        C650   1.399       .  A
C650        F651   1.358       .  S
C655        C656   1.402       .  A
C655        C660   1.407       .  A
C655        H662   1.083       .  S
C656        C657   1.398       .  A
C657        C658   1.387       .  A
C658        C659   1.414       .  A
C658        H663   1.083       .  S
C659        C660   1.420       .  A
C660        F661   1.356       .  S
C665        C666   1.403       .  A
C665        C670   1.399       .  A
C665        H672   1.084       .  S
C666        C667   1.401       .  A
C667        C668   1.392       .  A
C667        F674   1.357       .  S
C668        C669   1.419       .  A
C668        H673   1.084       .  S
C669        C670   1.419       .  A
C670        F671   1.356       .  S
C675        C676   1.397       .  A
C675        C680   1.394       .  A
C675        H682   1.084       .  S
C676        C677   1.401       .  A
C677        C678   1.397       .  A
C678        C679   1.423       .  A
C678        H683   1.077       .  S
C679        C680   1.426       .  A
C680        F681   1.350       .  S
C685        C686   1.417       .  A
C685        C690   1.401       .  A
C686        C687   1.416       .  A
C687        C688   1.389       .  A
C687        F694   1.356       .  S
C688        C689   1.399       .  A
C688        H693   1.084       .  S
C689        C690   1.402       .  A
C695        C696   1.401       .  A
C695        C700   1.397       .  A
C695        H702   1.084   1_556  S
C696        C697   1.400       .  A
C697        C698   1.397       .  A
C697        F704   1.358       .  S
C698        C699   1.422       .  A
C698        H703   1.083       .  S
C699        C700   1.423       .  A
C700        F701   1.356   1_556  S
C705        C706   1.411       .  A
C705        C710   1.397       .  A
C705        H712   1.071       .  S
C706        C707   1.423       .  A
C707        C708   1.394       .  A
C707        F714   1.356       .  S
C708        C709   1.418       .  A
C708        H713   1.079       .  S
C709        C710   1.418       .  A
C710        F711   1.354       .  S
C715        C716   1.418       .  A
C715        C720   1.398       .  A
C715        H722   1.079       .  S
C716        C717   1.421       .  A
C717        C718   1.399       .  A
C717        F724   1.358       .  S
C718        C719   1.399       .  A
C718        H723   1.083       .  S
C719        C720   1.404       .  A
C725        C726   1.416       .  A
C725        C730   1.394       .  A
C725        H732   1.075       .  S
C726        C727   1.423       .  A
C727        C728   1.406       .  A
C727        F734   1.357       .  S
C728        C729   1.401       .  A
C728        H733   1.083       .  S
C729        C730   1.399       .  A
C730        F731   1.358       .  S
C735        C736   1.418       .  A
C735        C740   1.407       .  A
C735        H742   1.081       .  S
C736        C737   1.422       .  A
C737        C738   1.389       .  A
C737        F744   1.358       .  S
C738        C739   1.397       .  A
C738        H743   1.085       .  S
C739        C740   1.404       .  A
C740        F741   1.357       .  S
C745        C746   1.417       .  A
C745        C750   1.389       .  A
C745        H752   1.084       .  S
C746        C747   1.424       .  A
C747        C748   1.404       .  A
C747        F754   1.353       .  S
C748        C749   1.400       .  A
C748        H753   1.083       .  S
C749        C750   1.400       .  A
C755        C760   1.386       .  A
C755        H762   1.075       .  S
C756        C757   1.421   1_554  A
C757        C758   1.406       .  A
C757        F764   1.358       .  S
C758        C759   1.403       .  A
C758        H763   1.084       .  S
C760        F761   1.359       .  S
C765        C766   1.399       .  A
C765        C770   1.395       .  A
C765        H772   1.084       .  S
C766        C767   1.400   1_556  A
C767        C768   1.401       .  A
C767        F774   1.357       .  S
C768        C769   1.418       .  A
C768        H773   1.083       .  S
C769        C770   1.424   1_554  A
C770        F771   1.355       .  S
C775        C776   1.414       .  A
C775        C780   1.391       .  A
C775        H782   1.063       .  S
C776        C777   1.432       .  A
C777        C778   1.394       .  A
C777        F784   1.357       .  S
C778        C779   1.406       .  A
C778        H783   1.074       .  S
C779        C780   1.416       .  A
C780        F781   1.358       .  S
C785        C942   1.560       .  S
C785       C1148   1.563       .  S
C785       C1161   1.566       .  S
C785        C975   1.571       .  S
C786        C912   1.576       .  S
C786        C922   1.567       .  S
C786        C932   1.559       .  S
C786        C972   1.592       .  S
C787        C875   1.580       .  S
C787        C882   1.551       .  S
C787        C895   1.567       .  S
C787        C902   1.583       .  S
C788        C842   1.578       .  S
C788        C855   1.551       .  S
C788        C865   1.562       .  S
C788        C905   1.588       .  S
C789       O1000   1.263       .  A
C789        O791   1.258       .  A
C789        C962   1.475       .  S
Tb790      O1400   2.335       .  S
Tb790      O1188   2.362   1_545  S
Tb790      O1002   2.344   1_545  S
Tb790       O801   2.336       .  S
Tb790       O990   2.364       .  S
Tb790       O814   2.343       .  S
Tb790       O811   2.329   1_545  S
O791       Tb795   2.347       .  S
O792        C803   1.263       .  A
O792      Tb1187   2.362       .  S
C793        O798   1.264       .  A
C793        O814   1.265       .  A
C793        C872   1.480       .  S
O794        C810   1.265       .  A
O794       Tb986   2.364       .  S
Tb795      O1184   2.362   1_545  S
Tb795       O995   2.356       .  S
Tb795      O1000   2.368       .  S
Tb795      O1393   2.349   1_545  S
Tb795       O807   2.349       .  S
Tb795      O1189   2.329   1_545  S
O796       C1194   1.265       .  A
O796      Tb1182   2.362       .  S
O797        C800   1.265       .  A
O797      Tb1187   2.329       .  S
O799        C809   1.277   1_655  A
O799       Tb991   2.356   1_554  S
C800        O813   1.264       .  A
C800        C955   1.473       .  S
C802       O1188   1.265       .  A
C802        O811   1.261       .  A
C802       C1277   1.470       .  S
C803       O1001   1.259       .  A
C803        C892   1.474       .  S
O804        C985   1.263   1_554  A
O804       Tb991   2.368   1_554  S
O805        C999   1.259   1_554  A
O805      Tb1383   2.349   1_554  S
O806       Tb986   2.344   1_564  S
O807        C808   1.275       .  A
C808        C835   1.467       .  S
C809        C834   1.471       .  S
C810       O1204   1.262   1_556  A
C810        C945   1.472       .  S
O812       C1202   1.262   1_554  A
O812      Tb1378   2.335   1_554  S
C815        O830   1.261       .  A
C815        O817   1.255       .  A
C815        C935   1.473       .  S
Tb816      O1230   2.355       .  S
Tb816      O1214   2.333   1_545  S
Tb816       O832   2.340       .  S
Tb816       O827   2.342       .  S
Tb816       O820   2.364       .  S
Tb816       O840   2.336       .  S
Tb816       O837   2.387   1_545  S
O817       Tb821   2.338       .  S
O818        C829   1.261       .  A
O818      Tb1213   2.355       .  S
C819        O824   1.270       .  A
C819        O840   1.270       .  A
C819        C845   1.478       .  S
O820        C836   1.262       .  A
Tb821      O1210   2.355   1_545  S
Tb821       O825   2.323       .  S
Tb821       O830   2.392       .  S
Tb821      O1223   2.349   1_545  S
Tb821       O833   2.341       .  S
Tb821      O1215   2.349   1_545  S
O822       C1220   1.255       .  A
O822      Tb1208   2.333       .  S
O823        C826   1.271       .  A
O823      Tb1213   2.349       .  S
O825        C835   1.268       .  A
C826        O839   1.268       .  A
C826        C925   1.476       .  S
C828       O1214   1.255       .  A
C828        O837   1.260       .  A
C828       C1244   1.468       .  S
C829        O831   1.261       .  A
C829        C862   1.473       .  S
O831      Tb1213   2.349       .  S
O833        C834   1.272   1_655  A
C836       O1230   1.259       .  A
C836        C915   1.477       .  S
O838       C1228   1.259       .  A
O838      Tb1208   2.355       .  S
C841        C842   1.414       .  A
C841        C846   1.393       .  A
C841        H848   1.063       .  S
C842        C843   1.430       .  A
C843        C844   1.401       .  A
C843        F850   1.357       .  S
C844        C845   1.399       .  A
C844        H849   1.083       .  S
C845        C846   1.399       .  A
C846        F847   1.358       .  S
C851        C852   1.402       .  A
C851        C856   1.407       .  A
C851        H858   1.083       .  S
C852       C1220   1.468       .  S
C852        C853   1.398       .  A
C853        C854   1.387       .  A
C853       F1252   1.357       .  S
C854        C855   1.414       .  A
C854        H859   1.083       .  S
C855        C856   1.420       .  A
C856        F857   1.356       .  S
F860       C1245   1.357   1_545  S
C861        C862   1.403       .  A
C861        C866   1.399       .  A
C861        H868   1.084       .  S
C862        C863   1.401       .  A
C863        C864   1.392       .  A
C863        F870   1.357       .  S
C864        C865   1.419       .  A
C864        H869   1.084       .  S
C865        C866   1.419       .  A
C866        F867   1.356       .  S
C871        C872   1.397       .  A
C871        C876   1.394       .  A
C871        H878   1.084       .  S
C872        C873   1.401       .  A
C873        C874   1.397       .  A
C873       F1076   1.357       .  S
C874        C875   1.423       .  A
C874        H879   1.077       .  S
C875        C876   1.426       .  A
C876        F877   1.350       .  S
F880       C1069   1.357   1_554  S
C881        C882   1.417       .  A
C881        C886   1.401       .  A
C881       H1084   1.082       .  S
C882        C883   1.416       .  A
C883        C884   1.389       .  A
C883        F890   1.356       .  S
C884        C885   1.399       .  A
C884        H889   1.084       .  S
C885       C1194   1.470       .  S
C885        C886   1.402       .  A
C886       F1083   1.357       .  S
F887       C1082   1.357   1_554  S
H888       C1077   1.082       .  S
C891        C892   1.401       .  A
C891        C896   1.397       .  A
C891        H898   1.084       .  S
C892        C893   1.400       .  A
C893        C894   1.397       .  A
C893        F900   1.358       .  S
C894        C895   1.422       .  A
C894        H899   1.083       .  S
C895        C896   1.423       .  A
C896        F897   1.356       .  S
C901        C902   1.411       .  A
C901        C906   1.397       .  A
C901        H908   1.071       .  S
C902        C903   1.423       .  A
C903        C904   1.394       .  A
C903        F910   1.356       .  S
C904        C905   1.418       .  A
C904        H909   1.079       .  S
C905        C906   1.418       .  A
C906        F907   1.354       .  S
C911        C912   1.418       .  A
C911        C916   1.398       .  A
C911        H918   1.079       .  S
C912        C913   1.421       .  A
C913        C914   1.399       .  A
C913        F920   1.358       .  S
C914        C915   1.399       .  A
C914        H919   1.083       .  S
C915        C916   1.404       .  A
C916       F1309   1.358       .  S
F917       C1308   1.358       .  S
C921        C922   1.416       .  A
C921        C926   1.394       .  A
C921        H928   1.075       .  S
C922        C923   1.423       .  A
C923        C924   1.406       .  A
C923        F930   1.357       .  S
C924        C925   1.401       .  A
C924        H929   1.083       .  S
C925        C926   1.399       .  A
C926        F927   1.358       .  S
C931        C932   1.418       .  A
C931        C936   1.407       .  A
C931        H938   1.081       .  S
C932        C933   1.422       .  A
C933        C934   1.389       .  A
C933        F940   1.358       .  S
C934        C935   1.397       .  A
C934        H939   1.085       .  S
C935        C936   1.404       .  A
C936        F937   1.357       .  S
C941        C942   1.417       .  A
C941        C946   1.389       .  A
C941        H948   1.084       .  S
C942        C943   1.424   1_554  A
C943        C944   1.404       .  A
C943        F950   1.353       .  S
C944        C945   1.400       .  A
C944        H949   1.083       .  S
C945        C946   1.400   1_556  A
C946       F1339   1.359       .  S
F947       C1338   1.359       .  S
C951       C1148   1.420       .  A
C951        C956   1.386       .  A
C951        H958   1.075       .  S
C952        C981   1.563       .  S
C952       C1147   1.420       .  A
C952        C953   1.421       .  A
C953        C954   1.406       .  A
C953        F960   1.358       .  S
C954        C955   1.403       .  A
C954        H959   1.084       .  S
C955       C1152   1.396       .  A
C956       C1151   1.396   1_554  A
C956        F957   1.359       .  S
C961        C962   1.399       .  A
C961        C966   1.395       .  A
C961        H968   1.084       .  S
C962        C963   1.400       .  A
C963        C964   1.401       .  A
C963        F970   1.357       .  S
C964        C965   1.418       .  A
C964        H969   1.083       .  S
C965        C981   1.566       .  S
C965        C966   1.424       .  A
C966        F967   1.355       .  S
C971        C972   1.414       .  A
C971        C976   1.391       .  A
C971        H978   1.063       .  S
C972        C973   1.432       .  A
C973        C974   1.394       .  A
C973        F980   1.357       .  S
C974        C975   1.406       .  A
C974        H979   1.074       .  S
C975        C976   1.416       .  A
C976        F977   1.358       .  S
C981       C1138   1.560       .  S
C981       C1171   1.571       .  S
C982       C1108   1.576       .  S
C982       C1118   1.567       .  S
C982       C1128   1.559       .  S
C982       C1168   1.592       .  S
C983       C1071   1.580       .  S
C983       C1078   1.551       .  S
C983       C1091   1.567       .  S
C983       C1098   1.583       .  S
C984       C1038   1.578       .  S
C984       C1051   1.551       .  S
C984       C1061   1.562       .  S
C984       C1101   1.588       .  S
C985        O987   1.258       .  A
C985       C1158   1.475       .  S
Tb986      O1204   2.335   1_556  S
Tb986      O1384   2.362   1_546  S
Tb986       O997   2.336       .  S
Tb986      O1010   2.343       .  S
Tb986      O1007   2.329   1_545  S
O987       Tb991   2.347       .  S
O988        C999   1.263       .  A
O988      Tb1383   2.362       .  S
C989        O994   1.264       .  A
C989       O1010   1.265       .  A
C989       C1068   1.480       .  S
O990       C1006   1.265       .  A
Tb991      O1380   2.362   1_545  S
Tb991      O1197   2.349   1_546  S
Tb991      O1003   2.349       .  S
Tb991      O1385   2.329   1_546  S
O992       C1390   1.265   1_554  A
O992      Tb1378   2.362   1_554  S
O993        C996   1.265   1_554  A
O993      Tb1383   2.329   1_554  S
O995       C1005   1.277   1_655  A
C996       O1009   1.264       .  A
C996       C1151   1.473       .  S
C998       O1384   1.265   1_556  A
C998       O1007   1.261       .  A
C998       C1473   1.470       .  S
C999       C1088   1.474       .  S
O1001     Tb1187   2.349       .  S
O1003      C1004   1.275       .  A
C1004      C1031   1.467       .  S
C1005      C1030   1.471       .  S
C1006      O1400   1.262       .  A
C1006      C1141   1.472       .  S
O1008      C1398   1.262       .  A
O1008     Tb1182   2.335       .  S
C1011      O1026   1.261       .  A
C1011      O1013   1.255       .  A
C1011      C1131   1.473       .  S
Tb1012     O1426   2.355       .  S
Tb1012     O1410   2.333   1_545  S
Tb1012     O1028   2.340       .  S
Tb1012     O1023   2.342       .  S
Tb1012     O1016   2.364       .  S
Tb1012     O1036   2.336       .  S
Tb1012     O1033   2.387   1_545  S
O1013     Tb1017   2.338       .  S
O1014      C1025   1.261       .  A
O1014     Tb1409   2.355       .  S
C1015      O1020   1.270       .  A
C1015      O1036   1.270       .  A
C1015      C1041   1.478       .  S
O1016      C1032   1.262       .  A
Tb1017     O1406   2.355   1_545  S
Tb1017     O1021   2.323       .  S
Tb1017     O1026   2.392       .  S
Tb1017     O1419   2.349   1_545  S
Tb1017     O1029   2.341       .  S
Tb1017     O1411   2.349   1_545  S
O1018      C1416   1.255       .  A
O1018     Tb1404   2.333       .  S
O1019      C1022   1.271       .  A
O1019     Tb1409   2.349       .  S
O1021      C1031   1.268       .  A
C1022      O1035   1.268       .  A
C1022      C1121   1.476       .  S
C1024      O1410   1.255       .  A
C1024      O1033   1.261       .  A
C1024      C1440   1.468       .  S
C1025      O1027   1.261       .  A
C1025      C1058   1.473       .  S
O1027     Tb1409   2.349       .  S
O1029      C1030   1.272   1_655  A
C1032      O1426   1.259       .  A
C1032      C1111   1.477       .  S
O1034      C1424   1.259       .  A
O1034     Tb1404   2.355       .  S
C1037      C1038   1.414       .  A
C1037      C1042   1.393       .  A
C1037      H1044   1.063       .  S
C1038      C1039   1.430       .  A
C1039      C1040   1.401       .  A
C1039      F1046   1.357       .  S
C1040      C1041   1.399       .  A
C1040      H1045   1.083       .  S
C1041      C1042   1.399       .  A
C1042      F1043   1.358       .  S
C1047      C1048   1.402       .  A
C1047      C1052   1.407       .  A
C1047      H1054   1.083       .  S
C1048      C1416   1.468       .  S
C1048      C1049   1.398       .  A
C1049      C1050   1.387       .  A
C1049      F1448   1.357       .  S
C1050      C1051   1.414       .  A
C1050      H1055   1.083       .  S
C1051      C1052   1.420       .  A
C1052      F1053   1.356       .  S
F1056      C1441   1.357   1_545  S
C1057      C1058   1.403       .  A
C1057      C1062   1.399       .  A
C1057      H1064   1.084       .  S
C1058      C1059   1.401       .  A
C1059      C1060   1.392       .  A
C1059      F1066   1.357       .  S
C1060      C1061   1.419       .  A
C1060      H1065   1.084       .  S
C1061      C1062   1.419       .  A
C1062      F1063   1.356       .  S
C1067      C1068   1.397       .  A
C1067      C1072   1.394       .  A
C1067      H1074   1.084       .  S
C1068      C1069   1.401       .  A
C1069      C1070   1.397       .  A
C1070      C1071   1.423       .  A
C1070      H1075   1.077       .  S
C1071      C1072   1.426       .  A
C1072      F1073   1.350       .  S
C1077      C1078   1.417       .  A
C1077      C1082   1.401       .  A
C1078      C1079   1.416       .  A
C1079      C1080   1.389       .  A
C1079      F1086   1.356       .  S
C1080      C1081   1.399       .  A
C1080      H1085   1.084       .  S
C1081      C1390   1.470       .  S
C1081      C1082   1.402       .  A
C1087      C1088   1.401       .  A
C1087      C1092   1.397       .  A
C1087      H1094   1.084   1_556  S
C1088      C1089   1.400       .  A
C1089      C1090   1.397       .  A
C1089      F1096   1.358       .  S
C1090      C1091   1.422       .  A
C1090      H1095   1.083       .  S
C1091      C1092   1.423       .  A
C1092      F1093   1.356   1_556  S
C1097      C1098   1.411       .  A
C1097      C1102   1.397       .  A
C1097      H1104   1.071       .  S
C1098      C1099   1.423       .  A
C1099      C1100   1.394       .  A
C1099      F1106   1.356       .  S
C1100      C1101   1.418       .  A
C1100      H1105   1.079       .  S
C1101      C1102   1.418       .  A
C1102      F1103   1.354       .  S
C1107      C1108   1.418       .  A
C1107      C1112   1.398       .  A
C1107      H1114   1.079       .  S
C1108      C1109   1.421       .  A
C1109      C1110   1.399       .  A
C1109      F1116   1.358       .  S
C1110      C1111   1.399       .  A
C1110      H1115   1.083       .  S
C1111      C1112   1.404       .  A
C1112      F1505   1.358       .  S
F1113      C1504   1.358       .  S
C1117      C1118   1.416       .  A
C1117      C1122   1.394       .  A
C1117      H1124   1.075       .  S
C1118      C1119   1.423       .  A
C1119      C1120   1.406       .  A
C1119      F1126   1.357       .  S
C1120      C1121   1.401       .  A
C1120      H1125   1.083       .  S
C1121      C1122   1.399       .  A
C1122      F1123   1.358       .  S
C1127      C1128   1.418       .  A
C1127      C1132   1.407       .  A
C1127      H1134   1.081       .  S
C1128      C1129   1.422       .  A
C1129      C1130   1.389       .  A
C1129      F1136   1.358       .  S
C1130      C1131   1.397       .  A
C1130      H1135   1.085       .  S
C1131      C1132   1.404       .  A
C1132      F1133   1.357       .  S
C1137      C1138   1.417       .  A
C1137      C1142   1.389       .  A
C1137      H1144   1.084       .  S
C1138      C1139   1.424       .  A
C1139      C1140   1.404       .  A
C1139      F1146   1.353       .  S
C1140      C1141   1.400       .  A
C1140      H1145   1.083       .  S
C1141      C1142   1.400       .  A
C1142      F1535   1.359       .  S
F1143      C1534   1.359       .  S
C1147      C1152   1.386       .  A
C1147      H1154   1.075       .  S
C1148      C1149   1.421   1_554  A
C1149      C1150   1.406       .  A
C1149      F1156   1.358       .  S
C1150      C1151   1.403       .  A
C1150      H1155   1.084       .  S
C1152      F1153   1.359       .  S
C1157      C1158   1.399       .  A
C1157      C1162   1.395       .  A
C1157      H1164   1.084       .  S
C1158      C1159   1.400   1_556  A
C1159      C1160   1.401       .  A
C1159      F1166   1.357       .  S
C1160      C1161   1.418       .  A
C1160      H1165   1.083       .  S
C1161      C1162   1.424   1_554  A
C1162      F1163   1.355       .  S
C1167      C1168   1.414       .  A
C1167      C1172   1.391       .  A
C1167      H1174   1.063       .  S
C1168      C1169   1.432       .  A
C1169      C1170   1.394       .  A
C1169      F1176   1.357       .  S
C1170      C1171   1.406       .  A
C1170      H1175   1.074       .  S
C1171      C1172   1.416       .  A
C1172      F1173   1.358       .  S
C1177      C1334   1.560       .  S
C1177      C1540   1.563       .  S
C1177      C1553   1.566       .  S
C1177      C1367   1.571       .  S
C1178      C1304   1.576       .  S
C1178      C1314   1.567       .  S
C1178      C1324   1.559       .  S
C1178      C1364   1.592       .  S
C1179      C1267   1.580       .  S
C1179      C1274   1.551       .  S
C1179      C1287   1.567       .  S
C1179      C1294   1.583       .  S
C1180      C1234   1.578       .  S
C1180      C1247   1.551       .  S
C1180      C1257   1.562       .  S
C1180      C1297   1.588       .  S
C1181      O1392   1.263       .  A
C1181      O1183   1.258       .  A
C1181      C1354   1.475       .  S
Tb1182     O1394   2.344       .  S
Tb1182     O1193   2.336       .  S
Tb1182     O1382   2.364       .  S
Tb1182     O1206   2.343       .  S
Tb1182     O1203   2.329       .  S
O1183     Tb1187   2.347       .  S
O1184      C1195   1.263       .  A
C1185      O1190   1.264       .  A
C1185      O1206   1.265       .  A
C1185      C1264   1.480       .  S
O1186      C1202   1.265       .  A
O1186     Tb1378   2.364       .  S
Tb1187     O1387   2.356       .  S
Tb1187     O1392   2.368       .  S
Tb1187     O1199   2.349       .  S
O1189      C1192   1.265       .  A
O1191      C1201   1.277   1_655  A
O1191     Tb1383   2.356   1_554  S
C1192      O1205   1.264       .  A
C1192      C1347   1.473       .  S
C1194      O1203   1.261       .  A
C1195      O1393   1.259       .  A
C1195      C1284   1.474       .  S
O1196      C1377   1.263   1_554  A
O1196     Tb1383   2.368   1_554  S
O1197      C1391   1.259   1_554  A
O1198     Tb1378   2.344   1_554  S
O1199      C1200   1.275       .  A
C1200      C1227   1.467       .  S
C1201      C1226   1.471       .  S
C1202      C1337   1.472       .  S
C1207      O1222   1.261       .  A
C1207      O1209   1.255       .  A
C1207      C1327   1.473       .  S
Tb1208     O1224   2.340       .  S
Tb1208     O1219   2.342       .  S
Tb1208     O1212   2.364       .  S
Tb1208     O1232   2.336       .  S
Tb1208     O1229   2.387       .  S
O1209     Tb1213   2.338       .  S
O1210      C1221   1.261       .  A
C1211      O1216   1.270       .  A
C1211      O1232   1.270       .  A
C1211      C1237   1.478       .  S
O1212      C1228   1.262       .  A
Tb1213     O1217   2.323       .  S
Tb1213     O1222   2.392       .  S
Tb1213     O1225   2.341       .  S
O1215      C1218   1.271       .  A
O1217      C1227   1.268       .  A
C1218      O1231   1.268       .  A
C1218      C1317   1.476       .  S
C1220      O1229   1.260       .  A
C1221      O1223   1.261       .  A
C1221      C1254   1.473       .  S
O1225      C1226   1.272   1_655  A
C1228      C1307   1.477       .  S
C1233      C1234   1.414       .  A
C1233      C1238   1.393       .  A
C1233      H1240   1.063       .  S
C1234      C1235   1.430       .  A
C1235      C1236   1.401       .  A
C1235      F1242   1.357       .  S
C1236      C1237   1.399       .  A
C1236      H1241   1.083       .  S
C1237      C1238   1.399       .  A
C1238      F1239   1.358       .  S
C1243      C1244   1.402       .  A
C1243      C1248   1.407       .  A
C1243      H1250   1.083       .  S
C1244      C1245   1.398       .  A
C1245      C1246   1.387       .  A
C1246      C1247   1.414       .  A
C1246      H1251   1.083       .  S
C1247      C1248   1.420       .  A
C1248      F1249   1.356       .  S
C1253      C1254   1.403       .  A
C1253      C1258   1.399       .  A
C1253      H1260   1.084       .  S
C1254      C1255   1.401       .  A
C1255      C1256   1.392       .  A
C1255      F1262   1.357       .  S
C1256      C1257   1.419       .  A
C1256      H1261   1.084       .  S
C1257      C1258   1.419       .  A
C1258      F1259   1.356       .  S
C1263      C1264   1.397       .  A
C1263      C1268   1.394       .  A
C1263      H1270   1.084       .  S
C1264      C1265   1.401       .  A
C1265      C1266   1.397       .  A
C1265      F1468   1.357       .  S
C1266      C1267   1.423       .  A
C1266      H1271   1.077       .  S
C1267      C1268   1.426       .  A
C1268      F1269   1.350       .  S
F1272      C1461   1.357   1_554  S
C1273      C1274   1.417       .  A
C1273      C1278   1.401       .  A
C1273      H1476   1.082       .  S
C1274      C1275   1.416       .  A
C1275      C1276   1.389       .  A
C1275      F1282   1.356       .  S
C1276      C1277   1.399       .  A
C1276      H1281   1.084       .  S
C1277      C1278   1.402       .  A
C1278      F1475   1.357       .  S
F1279      C1474   1.357   1_554  S
H1280      C1469   1.082       .  S
C1283      C1284   1.401       .  A
C1283      C1288   1.397       .  A
C1283      H1290   1.084       .  S
C1284      C1285   1.400       .  A
C1285      C1286   1.397       .  A
C1285      F1292   1.358       .  S
C1286      C1287   1.422       .  A
C1286      H1291   1.083       .  S
C1287      C1288   1.423       .  A
C1288      F1289   1.356       .  S
C1293      C1294   1.411       .  A
C1293      C1298   1.397       .  A
C1293      H1300   1.071       .  S
C1294      C1295   1.423       .  A
C1295      C1296   1.394       .  A
C1295      F1302   1.356       .  S
C1296      C1297   1.418       .  A
C1296      H1301   1.079       .  S
C1297      C1298   1.418       .  A
C1298      F1299   1.354       .  S
C1303      C1304   1.418       .  A
C1303      C1308   1.398       .  A
C1303      H1310   1.079       .  S
C1304      C1305   1.421       .  A
C1305      C1306   1.399       .  A
C1305      F1312   1.358       .  S
C1306      C1307   1.399       .  A
C1306      H1311   1.083       .  S
C1307      C1308   1.404       .  A
C1313      C1314   1.416       .  A
C1313      C1318   1.394       .  A
C1313      H1320   1.075       .  S
C1314      C1315   1.423       .  A
C1315      C1316   1.406       .  A
C1315      F1322   1.357       .  S
C1316      C1317   1.401       .  A
C1316      H1321   1.083       .  S
C1317      C1318   1.399       .  A
C1318      F1319   1.358       .  S
C1323      C1324   1.418       .  A
C1323      C1328   1.407       .  A
C1323      H1330   1.081       .  S
C1324      C1325   1.422       .  A
C1325      C1326   1.389       .  A
C1325      F1332   1.358       .  S
C1326      C1327   1.397       .  A
C1326      H1331   1.085       .  S
C1327      C1328   1.404       .  A
C1328      F1329   1.357       .  S
C1333      C1334   1.417       .  A
C1333      C1338   1.389       .  A
C1333      H1340   1.084       .  S
C1334      C1335   1.424   1_554  A
C1335      C1336   1.404       .  A
C1335      F1342   1.353       .  S
C1336      C1337   1.400       .  A
C1336      H1341   1.083       .  S
C1337      C1338   1.400   1_556  A
C1343      C1540   1.420       .  A
C1343      C1348   1.386       .  A
C1343      H1350   1.075       .  S
C1344      C1373   1.563       .  S
C1344      C1539   1.420       .  A
C1344      C1345   1.421       .  A
C1345      C1346   1.406       .  A
C1345      F1352   1.358       .  S
C1346      C1347   1.403       .  A
C1346      H1351   1.084       .  S
C1347      C1544   1.396       .  A
C1348      C1543   1.396   1_554  A
C1348      F1349   1.359       .  S
C1353      C1354   1.399       .  A
C1353      C1358   1.395       .  A
C1353      H1360   1.084       .  S
C1354      C1355   1.400       .  A
C1355      C1356   1.401       .  A
C1355      F1362   1.357       .  S
C1356      C1357   1.418       .  A
C1356      H1361   1.083       .  S
C1357      C1373   1.566       .  S
C1357      C1358   1.424       .  A
C1358      F1359   1.355       .  S
C1363      C1364   1.414       .  A
C1363      C1368   1.391       .  A
C1363      H1370   1.063       .  S
C1364      C1365   1.432       .  A
C1365      C1366   1.394       .  A
C1365      F1372   1.357       .  S
C1366      C1367   1.406       .  A
C1366      H1371   1.074       .  S
C1367      C1368   1.416       .  A
C1368      F1369   1.358       .  S
C1373      C1530   1.560       .  S
C1373      C1563   1.571       .  S
C1374      C1500   1.576       .  S
C1374      C1510   1.567       .  S
C1374      C1520   1.559       .  S
C1374      C1560   1.592       .  S
C1375      C1463   1.580       .  S
C1375      C1470   1.551       .  S
C1375      C1483   1.567       .  S
C1375      C1490   1.583       .  S
C1376      C1430   1.578       .  S
C1376      C1443   1.551       .  S
C1376      C1453   1.562       .  S
C1376      C1493   1.588       .  S
C1377      O1379   1.258       .  A
C1377      C1550   1.475       .  S
Tb1378     O1389   2.336       .  S
Tb1378     O1402   2.343       .  S
Tb1378     O1399   2.329       .  S
O1379     Tb1383   2.347       .  S
O1380      C1391   1.263       .  A
C1381      O1386   1.264       .  A
C1381      O1402   1.265       .  A
C1381      C1460   1.480       .  S
O1382      C1398   1.265       .  A
Tb1383     O1395   2.349       .  S
O1385      C1388   1.265   1_554  A
O1387      C1397   1.277   1_655  A
C1388      O1401   1.264       .  A
C1388      C1543   1.473       .  S
C1390      O1399   1.261       .  A
C1391      C1480   1.474       .  S
O1395      C1396   1.275       .  A
C1396      C1423   1.467       .  S
C1397      C1422   1.471       .  S
C1398      C1533   1.472       .  S
C1403      O1418   1.261       .  A
C1403      O1405   1.255       .  A
C1403      C1523   1.473       .  S
Tb1404     O1420   2.340       .  S
Tb1404     O1415   2.342       .  S
Tb1404     O1408   2.364       .  S
Tb1404     O1428   2.336       .  S
Tb1404     O1425   2.387       .  S
O1405     Tb1409   2.338       .  S
O1406      C1417   1.261       .  A
C1407      O1412   1.270       .  A
C1407      O1428   1.270       .  A
C1407      C1433   1.478       .  S
O1408      C1424   1.262       .  A
Tb1409     O1413   2.323       .  S
Tb1409     O1418   2.392       .  S
Tb1409     O1421   2.341       .  S
O1411      C1414   1.271       .  A
O1413      C1423   1.268       .  A
C1414      O1427   1.268       .  A
C1414      C1513   1.476       .  S
C1416      O1425   1.261       .  A
C1417      O1419   1.261       .  A
C1417      C1450   1.473       .  S
O1421      C1422   1.272   1_655  A
C1424      C1503   1.477       .  S
C1429      C1430   1.414       .  A
C1429      C1434   1.393       .  A
C1429      H1436   1.063       .  S
C1430      C1431   1.430       .  A
C1431      C1432   1.401       .  A
C1431      F1438   1.357       .  S
C1432      C1433   1.399       .  A
C1432      H1437   1.083       .  S
C1433      C1434   1.399       .  A
C1434      F1435   1.358       .  S
C1439      C1440   1.402       .  A
C1439      C1444   1.407       .  A
C1439      H1446   1.083       .  S
C1440      C1441   1.398       .  A
C1441      C1442   1.387       .  A
C1442      C1443   1.414       .  A
C1442      H1447   1.083       .  S
C1443      C1444   1.420       .  A
C1444      F1445   1.356       .  S
C1449      C1450   1.403       .  A
C1449      C1454   1.399       .  A
C1449      H1456   1.084       .  S
C1450      C1451   1.401       .  A
C1451      C1452   1.392       .  A
C1451      F1458   1.357       .  S
C1452      C1453   1.419       .  A
C1452      H1457   1.084       .  S
C1453      C1454   1.419       .  A
C1454      F1455   1.356       .  S
C1459      C1460   1.397       .  A
C1459      C1464   1.394       .  A
C1459      H1466   1.084       .  S
C1460      C1461   1.401       .  A
C1461      C1462   1.397       .  A
C1462      C1463   1.423       .  A
C1462      H1467   1.077       .  S
C1463      C1464   1.426       .  A
C1464      F1465   1.350       .  S
C1469      C1470   1.417       .  A
C1469      C1474   1.401       .  A
C1470      C1471   1.416       .  A
C1471      C1472   1.389       .  A
C1471      F1478   1.356       .  S
C1472      C1473   1.399       .  A
C1472      H1477   1.084       .  S
C1473      C1474   1.402       .  A
C1479      C1480   1.401       .  A
C1479      C1484   1.397       .  A
C1479      H1486   1.084   1_556  S
C1480      C1481   1.400       .  A
C1481      C1482   1.397       .  A
C1481      F1488   1.358       .  S
C1482      C1483   1.422       .  A
C1482      H1487   1.083       .  S
C1483      C1484   1.423       .  A
C1484      F1485   1.356   1_556  S
C1489      C1490   1.411       .  A
C1489      C1494   1.397       .  A
C1489      H1496   1.071       .  S
C1490      C1491   1.423       .  A
C1491      C1492   1.394       .  A
C1491      F1498   1.356       .  S
C1492      C1493   1.418       .  A
C1492      H1497   1.079       .  S
C1493      C1494   1.418       .  A
C1494      F1495   1.354       .  S
C1499      C1500   1.418       .  A
C1499      C1504   1.398       .  A
C1499      H1506   1.079       .  S
C1500      C1501   1.421       .  A
C1501      C1502   1.399       .  A
C1501      F1508   1.358       .  S
C1502      C1503   1.399       .  A
C1502      H1507   1.083       .  S
C1503      C1504   1.404       .  A
C1509      C1510   1.416       .  A
C1509      C1514   1.394       .  A
C1509      H1516   1.075       .  S
C1510      C1511   1.423       .  A
C1511      C1512   1.406       .  A
C1511      F1518   1.357       .  S
C1512      C1513   1.401       .  A
C1512      H1517   1.083       .  S
C1513      C1514   1.399       .  A
C1514      F1515   1.358       .  S
C1519      C1520   1.418       .  A
C1519      C1524   1.407       .  A
C1519      H1526   1.081       .  S
C1520      C1521   1.422       .  A
C1521      C1522   1.389       .  A
C1521      F1528   1.358       .  S
C1522      C1523   1.397       .  A
C1522      H1527   1.085       .  S
C1523      C1524   1.404       .  A
C1524      F1525   1.357       .  S
C1529      C1530   1.417       .  A
C1529      C1534   1.389       .  A
C1529      H1536   1.084       .  S
C1530      C1531   1.424       .  A
C1531      C1532   1.404       .  A
C1531      F1538   1.353       .  S
C1532      C1533   1.400       .  A
C1532      H1537   1.083       .  S
C1533      C1534   1.400       .  A
C1539      C1544   1.386       .  A
C1539      H1546   1.075       .  S
C1540      C1541   1.421   1_554  A
C1541      C1542   1.406       .  A
C1541      F1548   1.358       .  S
C1542      C1543   1.403       .  A
C1542      H1547   1.084       .  S
C1544      F1545   1.359       .  S
C1549      C1550   1.399       .  A
C1549      C1554   1.395       .  A
C1549      H1556   1.084       .  S
C1550      C1551   1.400   1_556  A
C1551      C1552   1.401       .  A
C1551      F1558   1.357       .  S
C1552      C1553   1.418       .  A
C1552      H1557   1.083       .  S
C1553      C1554   1.424   1_554  A
C1554      F1555   1.355       .  S
C1559      C1560   1.414       .  A
C1559      C1564   1.391       .  A
C1559      H1566   1.063       .  S
C1560      C1561   1.432       .  A
C1561      C1562   1.394       .  A
C1561      F1568   1.357       .  S
C1562      C1563   1.406       .  A
C1562      H1567   1.074       .  S
C1563      C1564   1.416       .  A
C1564      F1565   1.358       .  S
