geometry optimzed in LAMMPS
_audit_creation_date              2020-11-30 
_audit_creation_method            'lammps2cif' 
_symmetry_space_group_name_H-M    'P1' 
_symmetry_Int_Tables_number       1 
_symmetry_cell_setting            triclinic 
loop_ 
_symmetry_equiv_pos_as_xyz 
  x,y,z 
_cell_length_a                    50.8966991 
_cell_length_b                    50.5590146363137 
_cell_length_c                    91.08150430246205 
_cell_angle_alpha                 90.01854040364245 
_cell_angle_beta                  89.82545951297003 
_cell_angle_gamma                 90.19669154226104 
loop_ 
_atom_site_label 
_atom_site_type_symbol 
_atom_site_fract_x 
_atom_site_fract_y 
_atom_site_fract_z 
_atom_site_charge 
N1          N  0.73570716  0.97512019  0.35550916    -0.26600
N2          N  0.76031227  0.96898777  0.35860781    -0.34400
C3          C  0.76797083  0.94909306  0.34977949     0.01800
C4          C  0.74715930  0.94214625  0.34077874     0.07800
C5          C  0.72699410  0.95910905  0.34471667    -0.05300
H6          H  0.78717245  0.94000143  0.35009617     0.08500
H7          H  0.70751675  0.95987970  0.34006416     0.09700
Cu8        Cu  0.78199065  0.98678086  0.37535463     0.44200
Cu9        Cu  0.71529222  0.00500044  0.36623571     0.42000
Cu10       Cu  0.74777859  0.03462169  0.39786151     0.43900
N11         N  0.79845763  0.00447308  0.39389065    -0.34000
N12         N  0.78547062  0.02106909  0.40245549    -0.28200
C13         C  0.80077114  0.02770541  0.41392460    -0.04300
C14         C  0.82467774  0.01492372  0.41245119     0.07900
C15         C  0.82252809  0.00045646  0.39958628     0.01700
H16         H  0.79497782  0.04104857  0.42262502     0.09400
H17         H  0.83714354  0.98740305  0.39490186     0.08400
N18         N  0.71153930  0.04696006  0.38984235    -0.35400
N19         N  0.69979600  0.03611566  0.37837658    -0.27600
C20         C  0.67721397  0.04902203  0.37577278    -0.02800
C21         C  0.67457150  0.06906300  0.38604767     0.05800
C22         C  0.69672719  0.06713456  0.39478992     0.03900
H23         H  0.66396383  0.04436400  0.36687531     0.09000
H24         H  0.70188228  0.07964968  0.40397809     0.07800
O25         O  0.75680248  0.79503904  0.26141007    -0.72200
O26         O  0.76017448  0.73665659  0.23147055    -0.73200
O27         O  0.75827102  0.79279319  0.23033470    -0.61800
O28         O  0.75879360  0.73894864  0.26280447    -0.70200
O29         O  0.71522644  0.73769325  0.26235406    -0.69800
O30         O  0.71474688  0.79079787  0.22941131    -0.61000
O31         O  0.71663871  0.73448219  0.23109274    -0.73500
O32         O  0.71325026  0.79387927  0.26067912    -0.72300
Cu33       Cu  0.76000907  0.76587452  0.24650824     1.04600
Cu34       Cu  0.71343796  0.76411888  0.24585715     1.04300
C35         C  0.73453844  0.80372167  0.26576073     0.94000
C36         C  0.73899264  0.72640099  0.22651575     0.93100
C37         C  0.73653212  0.80041349  0.22481318     0.85300
C38         C  0.73702330  0.73005666  0.26783073     0.91500
N39         N  0.73007614  0.56890643  0.36224415    -0.26600
N40         N  0.70582824  0.57574496  0.36581805    -0.34400
C41         C  0.69864133  0.59646631  0.35747970     0.01800
C42         C  0.71947454  0.60315880  0.34837269     0.07800
C43         C  0.73910822  0.58532957  0.35175006    -0.05300
H44         H  0.67950561  0.60573061  0.35787601     0.08500
H45         H  0.75805783  0.58355092  0.34647677     0.09700
Cu46       Cu  0.68346262  0.55606203  0.38162471     0.44200
Cu47       Cu  0.74872290  0.53556035  0.37026825     0.42000
Cu48       Cu  0.71294181  0.49638332  0.39669123     0.43900
N49         N  0.66585865  0.53292992  0.39785154    -0.34000
N50         N  0.67656372  0.51117042  0.40319814    -0.28200
C51         C  0.66019465  0.50060245  0.41324360    -0.04300
C52         C  0.63815403  0.51647018  0.41437306     0.07900
C53         C  0.64246305  0.53685127  0.40446459     0.01700
H54         H  0.66418009  0.48274375  0.41935470     0.09400
H55         H  0.62953397  0.55325169  0.40214945     0.08400
N56         N  0.74873049  0.48486219  0.38761075    -0.35400
N57         N  0.76165920  0.49924426  0.37784293    -0.27600
C58         C  0.78328609  0.48609497  0.37355172    -0.02800
C59         C  0.78415535  0.46227702  0.38100956     0.05800
C60         C  0.76193079  0.46219061  0.38986795     0.03900
H61         H  0.79722334  0.49330356  0.36549459     0.09000
H62         H  0.75554147  0.44666435  0.39722955     0.07800
N63         N  0.72236665  0.56102369  0.13319227    -0.26600
N64         N  0.74698388  0.56762132  0.13027187    -0.34400
C65         C  0.75466096  0.58635057  0.13990664     0.01800
C66         C  0.73376931  0.59175675  0.14927399     0.07800
C67         C  0.71367487  0.57535527  0.14462296    -0.05300
H68         H  0.77399103  0.59527623  0.14007565     0.08500
H69         H  0.69424726  0.57354096  0.14936644     0.09700
Cu70       Cu  0.76854443  0.55020090  0.11332236     0.44200
Cu71       Cu  0.70204816  0.53123270  0.12258038     0.42000
Cu72       Cu  0.73691187  0.49286280  0.09584320     0.43900
N73         N  0.78459716  0.52934590  0.09567480    -0.34000
N74         N  0.77335973  0.50847147  0.08951370    -0.28200
C75         C  0.78894454  0.49969622  0.07858003    -0.04300
C76         C  0.81097934  0.51583230  0.07772170     0.07900
C77         C  0.80749434  0.53443576  0.08873709     0.01700
H78         H  0.78444332  0.48287597  0.07168847     0.09400
H79         H  0.82068764  0.55042217  0.09159733     0.08400
N80         N  0.69962789  0.48252326  0.10375160    -0.35400
N81         N  0.68684442  0.49704014  0.11347536    -0.27600
C82         C  0.66386056  0.48524297  0.11679700    -0.02800
C83         C  0.66187558  0.46211146  0.10875457     0.05800
C84         C  0.68494274  0.46104159  0.10056682     0.03900
H85         H  0.64981187  0.49281146  0.12467059     0.09000
H86         H  0.69085720  0.44560572  0.09305656     0.07800
N87         N  0.73875704  0.96416116  0.13134282    -0.26600
N88         N  0.71373341  0.95917505  0.12858267    -0.34400
C89         C  0.70482000  0.94102216  0.13818790     0.01800
C90         C  0.72517720  0.93414310  0.14745609     0.07800
C91         C  0.74641903  0.94925200  0.14279851    -0.05300
H92         H  0.68507650  0.93302731  0.13820289     0.08500
H93         H  0.76606796  0.94922903  0.14724863     0.09700
Cu94       Cu  0.69315389  0.97577570  0.11127615     0.44200
Cu95       Cu  0.76149933  0.99061710  0.11916425     0.42000
Cu96       Cu  0.73144692  0.01646576  0.08625448     0.43900
N97         N  0.67858693  0.99089519  0.09176236    -0.34000
N98         N  0.69279813  0.00479646  0.08232594    -0.28200
C99         C  0.67795420  0.01034745  0.07050684    -0.04300
C100        C  0.65316367  0.99956697  0.07266146     0.07900
C101        C  0.65430846  0.98747716  0.08627941     0.01700
H102        H  0.68463870  0.02172277  0.06115670     0.09400
H103        H  0.63871439  0.97667460  0.09175773     0.08400
N104        N  0.76838499  0.02822461  0.09365782    -0.35400
N105        N  0.77932227  0.01883036  0.10572053    -0.27600
C106        C  0.80221932  0.03157330  0.10803009    -0.02800
C107        C  0.80589981  0.04998601  0.09691505     0.05800
C108        C  0.78404919  0.04719570  0.08798707     0.03900
H109        H  0.81481755  0.02818179  0.11737457     0.09000
H110        H  0.77942398  0.05870366  0.07833081     0.07800
C111        C  0.48501027  0.02888581  0.00594240     0.03000
C112        C  0.50762641  0.01335930  0.00309844     0.03000
C113        C  0.50703234  0.99438402  0.99183132    -0.17500
C114        C  0.48425620  0.99009191  0.98350983     0.03000
C115        C  0.46186056  0.00585249  0.98611169     0.03000
C116        C  0.46232982  0.02479516  0.99739153    -0.17500
H117        H  0.44525813  0.03716438  0.99911491     0.05000
H118        H  0.52399622  0.98189247  0.99003848     0.05000
N119        N  0.22934330  0.04822962  0.85888792    -0.26600
N120        N  0.25387517  0.05459687  0.86214903    -0.34400
C121        C  0.26150595  0.07502325  0.85367887     0.01800
C122        C  0.24084419  0.08198199  0.84464276     0.07800
C123        C  0.22071707  0.06458093  0.84827158    -0.05300
H124        H  0.28078930  0.08408126  0.85405885     0.08500
H125        H  0.20142665  0.06351663  0.84339933     0.09700
Cu126      Cu  0.27634014  0.03555171  0.87793920     0.44200
Cu127      Cu  0.20917105  0.01674874  0.86856465     0.42000
Cu128      Cu  0.24504161  0.98316105  0.89775143     0.43900
N129        N  0.29419533  0.01580960  0.89523297    -0.34000
N130        N  0.28222931  0.99720861  0.90296968    -0.28200
C131        C  0.29800758  0.98969898  0.91405043    -0.04300
C132        C  0.32115668  0.00411138  0.91313223     0.07900
C133        C  0.31807071  0.02035309  0.90102462     0.01700
H134        H  0.29299855  0.97484093  0.92213933     0.09400
H135        H  0.33183164  0.03503739  0.89699444     0.08400
N136        N  0.20875542  0.97088214  0.88988883    -0.35400
N137        N  0.19558261  0.98297128  0.87935894    -0.27600
C138        C  0.17309301  0.96958497  0.87689280    -0.02800
C139        C  0.17209625  0.94805162  0.88633029     0.05800
C140        C  0.19505822  0.94955621  0.89437044     0.03900
H141        H  0.15862121  0.97515151  0.86881112     0.09000
H142        H  0.20143030  0.93611801  0.90287091     0.07800
N143        N  0.23589398  0.45534597  0.86517179    -0.26600
N144        N  0.21071772  0.44991186  0.86721588    -0.34400
C145        C  0.20378086  0.43009382  0.85807424     0.01800
C146        C  0.22570130  0.42270859  0.84994021     0.07800
C147        C  0.24565528  0.43913091  0.85481915    -0.05300
H148        H  0.18418427  0.42188050  0.85731992     0.08500
H149        H  0.26570265  0.43980046  0.85084548     0.09700
Cu150      Cu  0.18734366  0.47033270  0.88236842     0.44200
Cu151      Cu  0.25559427  0.48599447  0.87555188     0.42000
Cu152      Cu  0.21871135  0.52696089  0.90034670     0.43900
N153        N  0.16983454  0.49299626  0.89894452    -0.34000
N154        N  0.18130111  0.51356127  0.90526796    -0.28200
C155        C  0.16528472  0.52338959  0.91566759    -0.04300
C156        C  0.14260916  0.50828967  0.91603344     0.07900
C157        C  0.14616429  0.48917507  0.90527719     0.01700
H158        H  0.17010474  0.53999259  0.92266067     0.09400
H159        H  0.13267495  0.47347397  0.90233626     0.08400
N160        N  0.25697331  0.53519107  0.89418715    -0.35400
N161        N  0.27055249  0.51997536  0.88516315    -0.27600
C162        C  0.29418370  0.53108871  0.88275706    -0.02800
C163        C  0.29556923  0.55443821  0.89065244     0.05800
C164        C  0.27162027  0.55638493  0.89781967     0.03900
H165        H  0.30894520  0.52310581  0.87544097     0.09000
H166        H  0.26495106  0.57234761  0.90478058     0.07800
O167        O  0.24728463  0.28468626  0.76575917    -0.72200
O168        O  0.25327045  0.22985466  0.73354342    -0.73200
O169        O  0.25166629  0.28601594  0.73460462    -0.61800
O170        O  0.24936797  0.22846081  0.76479411    -0.70200
O171        O  0.20597472  0.22639943  0.76285772    -0.69800
O172        O  0.20817941  0.28570808  0.73300189    -0.61000
O173        O  0.20986191  0.22936838  0.73150961    -0.73500
O174        O  0.20383630  0.28275657  0.76424388    -0.72300
Cu175      Cu  0.25187728  0.25730405  0.74974046     1.04600
Cu176      Cu  0.20543199  0.25598463  0.74784758     1.04300
C177        C  0.22459321  0.29225973  0.77012007     0.94000
C178        C  0.23242913  0.22120482  0.72732685     0.93100
C179        C  0.23051216  0.29500788  0.72903558     0.85300
C180        C  0.22739138  0.21828880  0.76861815     0.91500
N181        N  0.24110808  0.06069093  0.63141144    -0.26600
N182        N  0.21608573  0.06541742  0.62852908    -0.34400
C183        C  0.20729092  0.08424398  0.63773906     0.01800
C184        C  0.22764838  0.09191138  0.64687334     0.07800
C185        C  0.24882742  0.07649692  0.64254229    -0.05300
H186        H  0.18749733  0.09199871  0.63766270     0.08500
H187        H  0.26839018  0.07673859  0.64709375     0.09700
Cu188      Cu  0.19474137  0.04737260  0.61175200     0.44200
Cu189      Cu  0.26364587  0.03283040  0.62008301     0.42000
Cu190      Cu  0.23189169  0.00489974  0.58820541     0.43900
N191        N  0.17929617  0.03014443  0.59284494    -0.34000
N192        N  0.19369383  0.01549939  0.58392443    -0.28200
C193        C  0.17930763  0.00847984  0.57222073    -0.04300
C194        C  0.15447334  0.01898238  0.57385759     0.07900
C195        C  0.15506645  0.03256739  0.58708597     0.01700
H196        H  0.18643495  0.99652876  0.56321270     0.09400
H197        H  0.13934321  0.04404565  0.59193343     0.08400
N198        N  0.26773654  0.99230866  0.59583274    -0.35400
N199        N  0.27961921  0.00232553  0.60746640    -0.27600
C200        C  0.30170760  0.98845138  0.60994623    -0.02800
C201        C  0.30360472  0.96871425  0.59939647     0.05800
C202        C  0.28172334  0.97183913  0.59064771     0.03900
H203        H  0.31492281  0.99201485  0.61900336     0.09000
H204        H  0.27596409  0.95973663  0.58139929     0.07800
N205        N  0.22348101  0.46404809  0.63735229    -0.26600
N206        N  0.24682533  0.45462492  0.63364575    -0.34400
C207        C  0.25244592  0.43402658  0.64248465     0.01800
C208        C  0.23155621  0.43021454  0.65208788     0.07800
C209        C  0.21358744  0.44954424  0.64845209    -0.05300
H210        H  0.27031804  0.42256467  0.64187030     0.08500
H211        H  0.19481108  0.45314085  0.65365502     0.09700
Cu212      Cu  0.26986387  0.46975699  0.61651579     0.44200
Cu213      Cu  0.20550808  0.49668319  0.62785100     0.42000
Cu214      Cu  0.24115260  0.52765142  0.59908082     0.43900
N215        N  0.28699398  0.48944862  0.59868914    -0.34000
N216        N  0.27656704  0.51080033  0.59270071    -0.28200
C217        C  0.29223640  0.51933720  0.58177466    -0.04300
C218        C  0.31353541  0.50254218  0.58066652     0.07900
C219        C  0.30954624  0.48371130  0.59154552     0.01700
H220        H  0.28825328  0.53646717  0.57504961     0.09400
H221        H  0.32225584  0.46731441  0.59422093     0.08400
N222        N  0.20469434  0.54108001  0.60610838    -0.35400
N223        N  0.19133958  0.52967719  0.61683982    -0.27600
C224        C  0.16864124  0.54285011  0.61889026    -0.02800
C225        C  0.16766654  0.56356600  0.60890866     0.05800
C226        C  0.19088936  0.56174437  0.60099421     0.03900
H227        H  0.15403325  0.53774446  0.62707664     0.09000
H228        H  0.19739763  0.57459419  0.59221142     0.07800
C229        C  0.96063415  0.51328744  0.00961050     0.03000
C230        C  0.97533075  0.49002259  0.00694398     0.03000
C231        C  0.99214487  0.48881314  0.99470092    -0.17500
C232        C  0.99525512  0.51052391  0.98526072     0.03000
C233        C  0.98054208  0.53368032  0.98790931     0.03000
C234        C  0.96371156  0.53495429  0.00010818    -0.17500
H235        H  0.95203246  0.55256522  0.00181439     0.05000
H236        H  0.00398743  0.47131904  0.99298012     0.05000
O237        O  0.70123611  0.72839640  0.72821031    -0.72200
O238        O  0.75373380  0.72913718  0.76084408    -0.73200
O239        O  0.69796677  0.73073473  0.75949175    -0.61800
O240        O  0.75712966  0.72739645  0.72961199    -0.70200
O241        O  0.75707782  0.77122969  0.72846155    -0.69800
O242        O  0.70074825  0.77453106  0.75907934    -0.61000
O243        O  0.75650133  0.77289492  0.75973637    -0.73500
O244        O  0.70144824  0.77227147  0.72775975    -0.72300
Cu245      Cu  0.72746360  0.72737662  0.74456667     1.04600
Cu246      Cu  0.72896471  0.77424539  0.74372956     1.04300
C247        C  0.69301699  0.75012940  0.72280592     0.94000
C248        C  0.76350996  0.75089779  0.76543427     0.93100
C249        C  0.69045391  0.75336876  0.76416886     0.85300
C250        C  0.76610919  0.74898295  0.72419913     0.91500
N251        N  0.52451600  0.74860247  0.85741379    -0.26600
N252        N  0.53414682  0.77220449  0.86066861    -0.34400
C253        C  0.55436458  0.77750674  0.85155673     0.01800
C254        C  0.55764603  0.75617706  0.84215469     0.07800
C255        C  0.53838951  0.73822637  0.84622822    -0.05300
H256        H  0.56580969  0.79555431  0.85180623     0.08500
H257        H  0.53449120  0.71914604  0.84131870     0.09700
Cu258      Cu  0.51940144  0.79617603  0.87739016     0.44200
Cu259      Cu  0.49247583  0.73172209  0.86793509     0.42000
Cu260      Cu  0.46260066  0.77074986  0.89683522     0.43900
N261        N  0.50148425  0.81586004  0.89485455    -0.34000
N262        N  0.48076329  0.80647565  0.90195648    -0.28200
C263        C  0.47410348  0.82349056  0.91270200    -0.04300
C264        C  0.49144749  0.84469219  0.91237732     0.07900
C265        C  0.50852999  0.83913257  0.90090661     0.01700
H266        H  0.45789516  0.82049598  0.92022050     0.09400
H267        H  0.52499487  0.85105374  0.89726044     0.08400
N268        N  0.44834296  0.73417991  0.89002518    -0.35400
N269        N  0.45947234  0.71989579  0.87957476    -0.27600
C270        C  0.44581209  0.69732167  0.87784838    -0.02800
C271        C  0.42500964  0.69735164  0.88767884     0.05800
C272        C  0.42721746  0.72105320  0.89520679     0.03900
H273        H  0.45069282  0.68212276  0.86994572     0.09000
H274        H  0.41447058  0.72823949  0.90384319     0.07800
N275        N  0.92762704  0.76422780  0.85899209    -0.26600
N276        N  0.91938677  0.74005650  0.86213072    -0.34400
C277        C  0.89915569  0.73388557  0.85324391     0.01800
C278        C  0.89440067  0.75525934  0.84407664     0.07800
C279        C  0.91284683  0.77410879  0.84807399    -0.05300
H280        H  0.88871393  0.71523426  0.85347861     0.08500
H281        H  0.91554632  0.79351109  0.84330049     0.09700
Cu282      Cu  0.93624127  0.71702035  0.87853256     0.44200
Cu283      Cu  0.95902457  0.78248468  0.86951881     0.42000
Cu284      Cu  0.99099782  0.74801970  0.89880406     0.43900
N285        N  0.95570663  0.69974337  0.89616847    -0.34000
N286        N  0.97482274  0.71136876  0.90362178    -0.28200
C287        C  0.98230145  0.69543368  0.91462465    -0.04300
C288        C  0.96740818  0.67256333  0.91403988     0.07900
C289        C  0.95080003  0.67589203  0.90218354     0.01700
H290        H  0.99768941  0.70010395  0.92236896     0.09400
H291        H  0.93591931  0.66220782  0.89835612     0.08400
N292        N  0.00369457  0.78455591  0.89127695    -0.35400
N293        N  0.99167866  0.79718867  0.88053916    -0.27600
C294        C  0.00468173  0.81979214  0.87771631    -0.02800
C295        C  0.02600978  0.82153125  0.88707887     0.05800
C296        C  0.02475885  0.79879327  0.89556727     0.03900
H297        H  0.99931695  0.83363381  0.86919398     0.09000
H298        H  0.03838844  0.79272431  0.90398927     0.07800
N299        N  0.53543630  0.77210391  0.62660653    -0.26600
N300        N  0.53898013  0.74643931  0.62471628    -0.34400
C301        C  0.55709022  0.73804599  0.63442273     0.01800
C302        C  0.56535140  0.75954728  0.64273301     0.07800
C303        C  0.55116689  0.78075517  0.63742705    -0.05300
H304        H  0.56390045  0.71785690  0.63524824     0.08500
H305        H  0.55198462  0.80099380  0.64123054     0.09700
Cu306      Cu  0.51942357  0.72476454  0.60846917     0.44200
Cu307      Cu  0.50849603  0.79415667  0.61497155     0.42000
Cu308      Cu  0.47446359  0.76219221  0.58512914     0.43900
N309        N  0.50064290  0.70911295  0.58996842    -0.34000
N310        N  0.48540512  0.72314160  0.58118287    -0.28200
C311        C  0.47781068  0.70785432  0.56985523    -0.04300
C312        C  0.48845557  0.68287969  0.57161139     0.07900
C313        C  0.50277033  0.68439995  0.58451475     0.01700
H314        H  0.46524597  0.71442368  0.56102453     0.09400
H315        H  0.51444526  0.66886853  0.58940458     0.08400
N316        N  0.46432605  0.79929814  0.59326169    -0.35400
N317        N  0.47700028  0.81083336  0.60418128    -0.27600
C318        C  0.46485661  0.83352513  0.60769184    -0.02800
C319        C  0.44342066  0.83653941  0.59856373     0.05800
C320        C  0.44369434  0.81446337  0.58951332     0.03900
H321        H  0.47078004  0.84643508  0.61656525     0.09000
H322        H  0.42954638  0.80934128  0.58114677     0.07800
N323        N  0.92644106  0.75427998  0.62926913    -0.26600
N324        N  0.91652500  0.77657608  0.62418111    -0.34400
C325        C  0.89524717  0.78286813  0.63229034     0.01800
C326        C  0.89166820  0.76355178  0.64295550     0.07800
C327        C  0.91179757  0.74570894  0.64062980    -0.05300
H328        H  0.88364166  0.80056092  0.63077484     0.08500
H329        H  0.91615017  0.72829092  0.64704492     0.09700
Cu330      Cu  0.93417068  0.79784392  0.60707987     0.44200
Cu331      Cu  0.96049277  0.73742381  0.62126410     0.42000
Cu332      Cu  0.99523607  0.76963272  0.59178230     0.43900
N333        N  0.95733677  0.81599439  0.59093011    -0.34000
N334        N  0.97934132  0.80591715  0.58555548    -0.28200
C335        C  0.98967476  0.82301134  0.57576337    -0.04300
C336        C  0.97347006  0.84490375  0.57484931     0.07900
C337        C  0.95313188  0.83971592  0.58461903     0.01700
H338        H  0.00772885  0.81971214  0.56975843     0.09400
H339        H  0.93660805  0.85233113  0.58709886     0.08400
N340        N  0.00723434  0.73388651  0.60097636    -0.35400
N341        N  0.99436902  0.72251927  0.61191714    -0.27600
C342        C  0.00681040  0.70024730  0.61582516    -0.02800
C343        C  0.02866047  0.69724093  0.60693877     0.05800
C344        C  0.02832949  0.71896603  0.59760446     0.03900
H345        H  0.00041894  0.68728100  0.62458095     0.09000
H346        H  0.04245458  0.72374451  0.58910620     0.07800
N347        N  0.03105623  0.25445729  0.13100584    -0.26600
N348        N  0.03554410  0.27964227  0.12793872    -0.34400
C349        C  0.05285994  0.28937999  0.13770122     0.01800
C350        C  0.05972518  0.26934698  0.14731251     0.07800
C351        C  0.04548772  0.24748887  0.14272655    -0.05300
H352        H  0.06032537  0.30944882  0.13760065     0.08500
H353        H  0.04559120  0.22791187  0.14750119     0.09700
Cu354      Cu  0.01917138  0.29922316  0.11007811     0.44200
Cu355      Cu  0.00546448  0.23047622  0.11926907     0.42000
Cu356      Cu  0.97677885  0.25847743  0.08695982     0.43900
N357        N  0.00315185  0.31199550  0.09030999    -0.34000
N358        N  0.98855555  0.29680518  0.08173515    -0.28200
C359        C  0.98241515  0.31034311  0.06951412    -0.04300
C360        C  0.99344253  0.33532906  0.07044376     0.07900
C361        C  0.00640075  0.33571558  0.08380833     0.01700
H362        H  0.97044441  0.30264033  0.06068988     0.09400
H363        H  0.01765952  0.35190903  0.08840745     0.08400
N364        N  0.96639335  0.22134579  0.09501128    -0.35400
N365        N  0.97713740  0.21110537  0.10690009    -0.27600
C366        C  0.96547691  0.18781076  0.10989750    -0.02800
C367        C  0.94635322  0.18307051  0.09942188     0.05800
C368        C  0.94755279  0.20477699  0.09011314     0.03900
H369        H  0.97001897  0.17565836  0.11931916     0.09000
H370        H  0.93509550  0.20872272  0.08078217     0.07800
N371        N  0.42323386  0.26853472  0.13033180    -0.26600
N372        N  0.41453628  0.24512199  0.12601535    -0.34400
C373        C  0.39328847  0.23854730  0.13405753     0.01800
C374        C  0.38822656  0.25878524  0.14390622     0.07800
C375        C  0.40757861  0.27754061  0.14118238    -0.05300
H376        H  0.38263822  0.22007968  0.13300528     0.08500
H377        H  0.41068880  0.29590815  0.14701288     0.09700
Cu378      Cu  0.43244071  0.22253514  0.10977902     0.44200
Cu379      Cu  0.45716926  0.28619145  0.12193921     0.42000
Cu380      Cu  0.49077968  0.25015563  0.09279577     0.43900
N381        N  0.45312994  0.20371120  0.09310340    -0.34000
N382        N  0.47446032  0.21366763  0.08685106    -0.28200
C383        C  0.48300331  0.19662818  0.07650800    -0.04300
C384        C  0.46618141  0.17494284  0.07621462     0.07900
C385        C  0.44749707  0.18021569  0.08689100     0.01700
H386        H  0.50006559  0.19992152  0.06965695     0.09400
H387        H  0.43094072  0.16787196  0.08994550     0.08400
N388        N  0.50393004  0.28624197  0.10135974    -0.35400
N389        N  0.49189184  0.29917661  0.11205560    -0.27600
C390        C  0.50577717  0.32117830  0.11527530    -0.02800
C391        C  0.52762149  0.32224693  0.10615042     0.03400
C392        C  0.52571437  0.29976484  0.09747499     0.03900
H393        H  0.50035926  0.33525840  0.12366970     0.09000
H394        H  0.53931559  0.29352535  0.08902064     0.07800
O395        O  0.19997927  0.24310086  0.23113137    -0.72200
O396        O  0.25650521  0.24690036  0.26181722    -0.73200
O397        O  0.20101944  0.24316129  0.26243140    -0.61800
O398        O  0.25553858  0.24694573  0.23050911    -0.70200
O399        O  0.25389189  0.29078232  0.23101436    -0.69800
O400        O  0.19713873  0.28685544  0.26196415    -0.61000
O401        O  0.25275829  0.29059978  0.26240708    -0.73500
O402        O  0.19804231  0.28692472  0.23060396    -0.72300
Cu403      Cu  0.22835619  0.24352288  0.24646093     1.04600
Cu404      Cu  0.22536092  0.29033561  0.24648687     1.04300
C405        C  0.19032375  0.26438078  0.22588989     0.94000
C406        C  0.26319198  0.26930624  0.26715841     0.93100
C407        C  0.19056328  0.26438371  0.26728845     0.85300
C408        C  0.26335169  0.26940343  0.22571766     0.91500
N409        N  0.02252447  0.27411897  0.35885917    -0.26600
N410        N  0.03289275  0.25162160  0.36341486    -0.34400
C411        C  0.05413917  0.24624670  0.35509684     0.01800
C412        C  0.05735398  0.26641896  0.34492218     0.07800
C413        C  0.03698047  0.28375313  0.34767996    -0.05300
H414        H  0.06629235  0.22890470  0.35637217     0.08500
H415        H  0.03258366  0.30175884  0.34179032     0.09700
Cu416      Cu  0.01745165  0.22892203  0.38061206     0.44200
Cu417      Cu  0.98827421  0.29016868  0.36720028     0.42000
Cu418      Cu  0.95467593  0.25137706  0.39457504     0.43900
N419        N  0.99669408  0.20953522  0.39731750    -0.34000
N420        N  0.97343991  0.21760243  0.40199198    -0.28200
C421        C  0.96470626  0.20105896  0.41247733    -0.04300
C422        C  0.98335974  0.18163986  0.41469877     0.07900
C423        C  0.00346294  0.18764285  0.40488513     0.01700
H424        H  0.94622739  0.20330156  0.41822838     0.09400
H425        H  0.02157620  0.17690318  0.40331555     0.08400
N426        N  0.94018886  0.28663349  0.38631915    -0.35400
N427        N  0.95255772  0.30083831  0.37626041    -0.27600
C428        C  0.93815997  0.32233582  0.37312177    -0.02800
C429        C  0.91562446  0.32169010  0.38166553     0.05800
C430        C  0.91760928  0.29878928  0.38992075     0.03900
H431        H  0.94379718  0.33729190  0.36522140     0.09000
H432        H  0.90366215  0.29142344  0.39792777     0.07800
N433        N  0.42502265  0.25021148  0.36135062    -0.26600
N434        N  0.41790118  0.27460322  0.36478948    -0.34400
C435        C  0.39797587  0.28191284  0.35597488     0.01800
C436        C  0.39226297  0.26112457  0.34655802     0.07800
C437        C  0.40976307  0.24139061  0.35034527    -0.05300
H438        H  0.38855114  0.30103815  0.35633671     0.08500
H439        H  0.41171321  0.22217381  0.34525022     0.09700
Cu440      Cu  0.43566840  0.29709590  0.38123090     0.44200
Cu441      Cu  0.45622298  0.22993918  0.37085348     0.42000
Cu442      Cu  0.49029293  0.26429993  0.39926808     0.43900
N443        N  0.45614177  0.31335424  0.39888933    -0.34000
N444        N  0.47566685  0.30100145  0.40551498    -0.28200
C445        C  0.48430114  0.31599885  0.41669975    -0.04300
C446        C  0.46969477  0.33902329  0.41717840     0.07900
C447        C  0.45198357  0.33668481  0.40569190     0.01700
H448        H  0.50016182  0.31048884  0.42395733     0.09400
H449        H  0.43695771  0.35069612  0.40261215     0.08400
N450        N  0.50277159  0.22803441  0.39108537    -0.35400
N451        N  0.49010812  0.21520288  0.38062063    -0.27600
C452        C  0.50358652  0.19316054  0.37717812    -0.02800
C453        C  0.52589639  0.19207077  0.38587183     0.05800
C454        C  0.52463594  0.21452818  0.39459201     0.03900
H455        H  0.49791628  0.17933159  0.36868667     0.09000
H456        H  0.53886832  0.22100169  0.40262663     0.07800
C457        C  0.96129438  0.02064666  0.48799220     0.03000
C458        C  0.98391148  0.03696219  0.48668108     0.03000
C459        C  0.00438471  0.03390763  0.49688171    -0.17500
C460        C  0.00260835  0.01556275  0.50845991     0.03000
C461        C  0.98002463  0.99933985  0.50974359     0.03000
C462        C  0.95953450  0.00239801  0.49960088    -0.17500
H463        H  0.94241601  0.98967851  0.50039444     0.05000
H464        H  0.02145939  0.04669028  0.49619024     0.05000
C465        C  0.47671997  0.48684771  0.48652711     0.03000
C466        C  0.49425573  0.50850083  0.48570597     0.03000
C467        C  0.49333823  0.52808753  0.49661484    -0.17500
C468        C  0.47563363  0.52640119  0.50845092     0.03000
C469        C  0.45810697  0.50462351  0.50932121     0.03000
C470        C  0.45903723  0.48503285  0.49834890    -0.17500
H471        H  0.44529672  0.46862962  0.49872597     0.05000
H472        H  0.50691578  0.54461385  0.49605147     0.05000
C473        C  0.48357332  0.38900735  0.44809929     0.16700
C474        C  0.49215026  0.40187336  0.46085292    -0.32400
C475        C  0.48265604  0.42740178  0.46356598     0.21100
C476        C  0.46573527  0.43984698  0.45388486     0.03300
C477        C  0.45711937  0.42693428  0.44109239    -0.22100
C478        C  0.46630135  0.40114154  0.43850151     0.12400
S479        S  0.49252052  0.35781275  0.44309187    -0.05800
C480        C  0.47256142  0.36078859  0.42793004    -0.09200
C481        C  0.45979647  0.38497936  0.42689922    -0.25800
S482        S  0.45644876  0.47086710  0.45929339    -0.03000
C483        C  0.47531118  0.46673411  0.47479085    -0.16500
C484        C  0.48803137  0.44264617  0.47564816    -0.14500
H485        H  0.50538119  0.39228415  0.46841316     0.20900
H486        H  0.44367656  0.43641718  0.43360986     0.16900
H487        H  0.44654879  0.39047380  0.41816258     0.19400
H488        H  0.50044473  0.43663357  0.48466392     0.12800
C489        C  0.99952615  0.08952712  0.45695278     0.16700
C490        C  0.01095118  0.10581313  0.44614799    -0.32400
C491        C  0.99509078  0.12540660  0.43977148     0.21100
C492        C  0.96914444  0.12867087  0.44405616     0.03300
C493        C  0.95781678  0.11253542  0.45488731    -0.22100
C494        C  0.97358920  0.09291959  0.46118303     0.12400
S495        S  0.01515670  0.06442284  0.46595073    -0.05800
C496        C  0.98627708  0.05814164  0.47536661    -0.09200
C497        C  0.96597294  0.07525485  0.47180843    -0.25800
S498        S  0.95315580  0.15350758  0.43516865    -0.03000
C499        C  0.98167694  0.15981456  0.42550257    -0.16500
C500        C  0.00242062  0.14320644  0.42906313    -0.14500
H501        H  0.03118831  0.10327200  0.44283728     0.20900
H502        H  0.93759217  0.11509710  0.45821971     0.16900
H503        H  0.94669557  0.07499693  0.47680989     0.19400
H504        H  0.02182368  0.14426769  0.42423733     0.12800
C505        C  0.14322401  0.25057060  0.29931902     0.16700
C506        C  0.12846914  0.23934748  0.31075406    -0.32400
C507        C  0.11017461  0.25552152  0.31794017     0.21100
C508        C  0.10670992  0.28173649  0.31394630     0.03300
C509        C  0.12174667  0.29308853  0.30263635    -0.22100
C510        C  0.14002644  0.27687546  0.29542127     0.12400
S511        S  0.16580730  0.23397499  0.28897890    -0.05800
C512        C  0.17115368  0.26278461  0.27929972    -0.09200
C513        C  0.15615628  0.28406588  0.28398732    -0.25800
S514        S  0.08281851  0.29769931  0.32369317    -0.03000
C515        C  0.07759568  0.26878885  0.33334490    -0.16500
C516        C  0.09366367  0.24803261  0.32911753    -0.14500
H517        H  0.13093452  0.21880992  0.31380966     0.20900
H518        H  0.11909542  0.31355569  0.29948420     0.16900
H519        H  0.15686240  0.30367113  0.27921042     0.19400
H520        H  0.09302464  0.22834979  0.33378375     0.12800
C521        C  0.34488075  0.24908889  0.31433941     0.16700
C522        C  0.33033526  0.23855540  0.30265113    -0.32400
C523        C  0.31313021  0.25553784  0.29524660     0.21100
C524        C  0.31063795  0.28188682  0.29922176     0.03300
C525        C  0.32508794  0.29238764  0.31097397    -0.22100
C526        C  0.34218478  0.27534611  0.31844828     0.12400
S527        S  0.36700656  0.23180699  0.32456068    -0.05800
C528        C  0.37271070  0.26019132  0.33458000    -0.09200
C529        C  0.35799535  0.28181709  0.33011785    -0.25800
S530        S  0.28882150  0.29923405  0.28878056    -0.03000
C531        C  0.28274906  0.27060786  0.27905551    -0.16500
C532        C  0.29710846  0.24891459  0.28372163    -0.14500
H533        H  0.33234280  0.21803991  0.29947132     0.20900
H534        H  0.32309388  0.31290502  0.31414640     0.16900
H535        H  0.35902765  0.30130797  0.33499056     0.19400
H536        H  0.29581906  0.22932221  0.27897713     0.12800
C537        C  0.31460264  0.28166808  0.19521064     0.16700
C538        C  0.33282769  0.29211447  0.18512734    -0.32400
C539        C  0.34356702  0.27480136  0.17464023     0.21100
C540        C  0.33627776  0.24836847  0.17414582     0.03300
C541        C  0.31828763  0.23790717  0.18428373    -0.22100
C542        C  0.30776445  0.25511076  0.19482635     0.12400
S543        S  0.29882412  0.29932754  0.20861663    -0.05800
C544        C  0.28308366  0.27052062  0.21381884    -0.09200
C545        C  0.28991510  0.24857282  0.20552944    -0.25800
S546        S  0.35127266  0.23059830  0.16059567    -0.03000
C547        C  0.36809809  0.25888230  0.15565407    -0.16500
C548        C  0.36190929  0.28095491  0.16406053    -0.14500
H549        H  0.33838588  0.31280390  0.18544035     0.20900
H550        H  0.31273262  0.21721710  0.18397137     0.16900
H551        H  0.28185362  0.22890956  0.20707443     0.19400
H552        H  0.37049582  0.30040729  0.16260040     0.12800
C553        C  0.11028301  0.28323234  0.17767246     0.16700
C554        C  0.12815872  0.29457577  0.18753563    -0.32400
C555        C  0.14203506  0.27751187  0.19682412     0.21100
C556        C  0.13837401  0.25033840  0.19628848     0.03300
C557        C  0.12037733  0.23899377  0.18647422    -0.22100
C558        C  0.10641237  0.25608751  0.17722452     0.12400
S559        S  0.09197670  0.30051795  0.16530524    -0.05800
C560        C  0.07882887  0.27089142  0.15945723    -0.09200
C561        C  0.08824842  0.24888468  0.16685540    -0.25800
S562        S  0.15738021  0.23306036  0.20834597    -0.03000
C563        C  0.17023763  0.26278407  0.21428166    -0.16500
C564        C  0.16024858  0.28478356  0.20714592    -0.14500
H565        H  0.13119035  0.31576775  0.18791456     0.20900
H566        H  0.11745375  0.21778738  0.18603465     0.16900
H567        H  0.08249646  0.22865530  0.16462008     0.19400
H568        H  0.16606768  0.30501184  0.20935088     0.12800
C569        C  0.99171651  0.90180792  0.54844859     0.16700
C570        C  0.00348686  0.91856008  0.53802708    -0.32400
C571        C  0.98932185  0.94087234  0.53347378     0.21100
C572        C  0.96459063  0.94635836  0.53909547     0.03300
C573        C  0.95295723  0.92977104  0.54964844    -0.22100
C574        C  0.96705726  0.90736549  0.55414142     0.12400
S575        S  0.00517247  0.87318170  0.55492116    -0.05800
C576        C  0.97726274  0.86851117  0.56542359    -0.09200
C577        C  0.95872264  0.88843074  0.56394200    -0.25800
S578        S  0.95016276  0.97374967  0.53167203    -0.03000
C579        C  0.97782795  0.97804306  0.52093920    -0.16500
C580        C  0.99704643  0.95899970  0.52308772    -0.14500
H581        H  0.02267002  0.91416494  0.53349011     0.20900
H582        H  0.93357098  0.93390564  0.55398439     0.16900
H583        H  0.93992158  0.88885046  0.56951818     0.19400
H584        H  0.01543501  0.95812760  0.51709911     0.12800
C585        C  0.48269210  0.57612372  0.54037437     0.16700
C586        C  0.48807764  0.58946999  0.55359610    -0.32400
C587        C  0.48578500  0.61722142  0.55369809     0.21100
C588        C  0.47812339  0.63091708  0.54124675     0.03300
C589        C  0.47302059  0.61765086  0.52805919    -0.22100
C590        C  0.47562819  0.59008470  0.52790141     0.12400
S591        S  0.48464085  0.54260266  0.53773256    -0.05800
C592        C  0.47626535  0.54772772  0.51960625    -0.09200
C593        C  0.47212833  0.57396213  0.51597878    -0.25800
S594        S  0.47575207  0.66430358  0.54356396    -0.03000
C595        C  0.48560280  0.66012518  0.56149028    -0.16500
C596        C  0.49036848  0.63395950  0.56535549    -0.14500
H597        H  0.49391770  0.57872849  0.56333869     0.20900
H598        H  0.46734487  0.62840792  0.51828658     0.16900
H599        H  0.46703214  0.58086376  0.50509298     0.19400
H600        H  0.49652754  0.62750376  0.57614299     0.12800
C601        C  0.83989136  0.77266361  0.67339847     0.16700
C602        C  0.82078348  0.78223876  0.68311954    -0.32400
C603        C  0.81135082  0.76494613  0.69397061     0.21100
C604        C  0.82046042  0.73923505  0.69516019     0.03300
C605        C  0.83998819  0.72978501  0.68558495    -0.22100
C606        C  0.84941447  0.74712023  0.67468259     0.12400
S607        S  0.85317830  0.79035668  0.65921922    -0.05800
C608        C  0.87213964  0.76322377  0.65501158    -0.09200
C609        C  0.86805337  0.74161706  0.66419542    -0.25800
S610        S  0.80531675  0.72110618  0.70866504    -0.03000
C611        C  0.78670791  0.74859714  0.71276734    -0.16500
C612        C  0.79224919  0.77049699  0.70411231    -0.14500
H613        H  0.81334607  0.80214851  0.68214769     0.20900
H614        H  0.84722030  0.70977320  0.68645427     0.16900
H615        H  0.87806714  0.72286591  0.66324007     0.19400
H616        H  0.78236299  0.78933230  0.70496125     0.12800
C617        C  0.84588262  0.77014140  0.81267980     0.16700
C618        C  0.83107564  0.78134035  0.80126828    -0.32400
C619        C  0.81340335  0.76477679  0.79375744     0.21100
C620        C  0.81070679  0.73829877  0.79745898     0.03300
C621        C  0.82531023  0.72720860  0.80890857    -0.22100
C622        C  0.84289977  0.74372150  0.81640853     0.12400
S623        S  0.86885509  0.78653313  0.82292510    -0.05800
C624        C  0.87445625  0.75746411  0.83234415    -0.09200
C625        C  0.85907440  0.73637539  0.82770552    -0.25800
S626        S  0.78871684  0.72128335  0.78698249    -0.03000
C627        C  0.78274815  0.75011714  0.77750585    -0.16500
C628        C  0.79727243  0.77175436  0.78230503    -0.14500
H629        H  0.83334436  0.80195512  0.79832555     0.20900
H630        H  0.82316988  0.70655302  0.81178479     0.16900
H631        H  0.85992380  0.71657928  0.83217497     0.19400
H632        H  0.79618026  0.79140841  0.77764272     0.12800
C633        C  0.64181465  0.76924252  0.79522722     0.16700
C634        C  0.62733426  0.78120508  0.80650540    -0.32400
C635        C  0.60902429  0.76555055  0.81408282     0.21100
C636        C  0.60512355  0.73916344  0.81053453     0.03300
C637        C  0.61976732  0.72711196  0.79929410    -0.22100
C638        C  0.63827062  0.74275318  0.79176733     0.12400
S639        S  0.66489596  0.78500533  0.78480444    -0.05800
C640        C  0.67025048  0.75556570  0.77575071    -0.09200
C641        C  0.65467191  0.73471621  0.78060926    -0.25800
S642        S  0.58156581  0.72380036  0.82090441    -0.03000
C643        C  0.57711138  0.75319905  0.83020466    -0.16500
C644        C  0.59314201  0.77367450  0.82538631    -0.14500
H645        H  0.63023354  0.80185262  0.80926254     0.20900
H646        H  0.61687628  0.70645606  0.79654574     0.16900
H647        H  0.65533511  0.71479872  0.77623748     0.19400
H648        H  0.59305539  0.79355787  0.82980015     0.12800
C649        C  0.64438153  0.73789827  0.69127119     0.16700
C650        C  0.62799971  0.72705315  0.68045296    -0.32400
C651        C  0.61346972  0.74459234  0.67175873     0.21100
C652        C  0.61520114  0.77173193  0.67375308     0.03300
C653        C  0.63172458  0.78258556  0.68449609    -0.22100
C654        C  0.64621945  0.76505131  0.69320138     0.12400
S655        S  0.66330420  0.71997184  0.70305496    -0.05800
C656        C  0.67388171  0.74935735  0.71067774    -0.09200
C657        C  0.66317446  0.77176064  0.70430013    -0.25800
S658        S  0.59562390  0.78963427  0.66231195    -0.03000
C659        C  0.58498551  0.76027851  0.65466652    -0.16500
C660        C  0.59624199  0.73789233  0.66077991    -0.14500
H661        H  0.62653301  0.70583557  0.67893304     0.20900
H662        H  0.63309409  0.80379768  0.68606405     0.16900
H663        H  0.66752489  0.79188291  0.70761919     0.19400
H664        H  0.59188422  0.71776256  0.65749227     0.12800
C665        C  0.98545906  0.43976439  0.03788950     0.16700
C666        C  0.99238056  0.42685536  0.05090761    -0.32400
C667        C  0.99070327  0.39919326  0.05117393     0.21100
C668        C  0.98241574  0.38494234  0.03901956     0.03300
C669        C  0.97583321  0.39784084  0.02589363    -0.22100
C670        C  0.97758245  0.42556288  0.02562524     0.12400
S671        S  0.98634593  0.47319634  0.03544385    -0.05800
C672        C  0.97624625  0.46810384  0.01765118    -0.09200
C673        C  0.97244428  0.44176622  0.01390014    -0.25800
S674        S  0.98056580  0.35158537  0.04186625    -0.03000
C675        C  0.99110827  0.35692422  0.05961409    -0.16500
C676        C  0.99601607  0.38322632  0.06295177    -0.14500
H677        H  0.99868924  0.43793105  0.06046159     0.20900
H678        H  0.96947293  0.38676824  0.01634265     0.16900
H679        H  0.96663894  0.43489893  0.00310771     0.19400
H680        H  0.00235549  0.39041634  0.07357330     0.12800
C681        C  0.98348125  0.59701020  0.96484100     0.16700
C682        C  0.98656553  0.62279527  0.95949416    -0.32400
C683        C  0.97852243  0.62779028  0.94505583     0.21100
C684        C  0.96772222  0.60811422  0.93632549     0.03300
C685        C  0.96523879  0.58214872  0.94154796    -0.22100
C686        C  0.97344130  0.57711257  0.95596821     0.12400
S687        S  0.99070081  0.58725959  0.98231535    -0.05800
C688        C  0.98070309  0.55592938  0.97746992    -0.09200
C689        C  0.97208955  0.55335764  0.96313065    -0.25800
S690        S  0.95783761  0.61868408  0.91940482    -0.03000
C691        C  0.96893992  0.64979516  0.92406294    -0.16500
C692        C  0.97954996  0.65166275  0.93802029    -0.14500
H693        H  0.99450635  0.63833993  0.96633943     0.20900
H694        H  0.95695784  0.56668452  0.93477104     0.16900
H695        H  0.96477335  0.53518866  0.95834773     0.19400
H696        H  0.98717934  0.66963009  0.94287608     0.12800
C697        C  0.12027728  0.62092967  0.60062318     0.16700
C698        C  0.10797211  0.64376866  0.59528235    -0.32400
C699        C  0.08453773  0.65174198  0.60209555     0.21100
C700        C  0.07377354  0.63750778  0.61366219     0.03300
C701        C  0.08600615  0.61459608  0.61895699    -0.22100
C702        C  0.10952122  0.60670067  0.61219250     0.12400
S703        S  0.14917834  0.60846121  0.59411392    -0.05800
C704        C  0.14696606  0.58383199  0.60716931    -0.09200
C705        C  0.12468263  0.58533361  0.61597083    -0.25800
S706        S  0.04545634  0.65058895  0.62056083    -0.03000
C707        C  0.04807383  0.67560585  0.60775198    -0.16500
C708        C  0.06987461  0.67362510  0.59863502    -0.14500
H709        H  0.11643146  0.65496998  0.58629723     0.20900
H710        H  0.07767896  0.60354447  0.62804287     0.16900
H711        H  0.11996685  0.57178367  0.62480300     0.19400
H712        H  0.07485215  0.68747867  0.59000040     0.12800
C713        C  0.36736953  0.51866723  0.55226031     0.16700
C714        C  0.38368245  0.53050464  0.54169960    -0.32400
C715        C  0.40356583  0.51498991  0.53545142     0.21100
C716        C  0.40709144  0.48882657  0.53951848     0.03300
C717        C  0.39091309  0.47703571  0.55020319    -0.22100
C718        C  0.37100444  0.49258936  0.55648255     0.12400
S719        S  0.34162047  0.53395270  0.56071576    -0.05800
C720        C  0.33565554  0.50501166  0.57018491    -0.09200
C721        C  0.35296333  0.48467249  0.56687350    -0.25800
S722        S  0.43182516  0.47318902  0.53025955    -0.03000
C723        C  0.43779214  0.50236072  0.52098392    -0.16500
C724        C  0.42103921  0.52284477  0.52481849    -0.14500
H725        H  0.38083128  0.55086148  0.53838943     0.20900
H726        H  0.39356499  0.45659230  0.55337541     0.16900
H727        H  0.35210296  0.46504545  0.57158864     0.19400
H728        H  0.42126919  0.54231598  0.51987528     0.12800
C729        C  0.39722471  0.89538702  0.60496076     0.16700
C730        C  0.38442528  0.91796906  0.61022363    -0.32400
C731        C  0.36090958  0.92528405  0.60341008     0.21100
C732        C  0.35060431  0.91085508  0.59181809     0.03300
C733        C  0.36343615  0.88825069  0.58652932    -0.22100
C734        C  0.38693615  0.88086312  0.59339892     0.12400
S735        S  0.42571617  0.88308599  0.61193325    -0.05800
C736        C  0.42378782  0.85792960  0.59919626    -0.09200
C737        C  0.40212340  0.85932988  0.59001876    -0.25800
S738        S  0.32183959  0.92309102  0.58508779    -0.03000
C739        C  0.32373436  0.94791963  0.59805405    -0.16500
C740        C  0.34557899  0.94651609  0.60705426    -0.14500
H741        H  0.39238606  0.92927651  0.61928749     0.20900
H742        H  0.35540577  0.87686898  0.57751472     0.16900
H743        H  0.39755892  0.84527352  0.58142773     0.19400
H744        H  0.35009849  0.96028939  0.61579352     0.12800
C745        C  0.10538081  0.01312108  0.54214675     0.16700
C746        C  0.09303669  0.01089708  0.52847430    -0.32400
C747        C  0.06561403  0.01317003  0.52810159     0.21100
C748        C  0.05105322  0.01709409  0.54081131     0.03300
C749        C  0.06342013  0.01944403  0.55448648    -0.22100
C750        C  0.09089928  0.01760283  0.55482770     0.12400
S751        S  0.13844517  0.01115759  0.54486212    -0.05800
C752        C  0.13281020  0.01705615  0.56323540    -0.09200
C753        C  0.10658117  0.02007763  0.56697681    -0.25800
S754        S  0.01798073  0.01927850  0.53802441    -0.03000
C755        C  0.02385344  0.01499261  0.51951773    -0.16500
C756        C  0.05012283  0.01217291  0.51583530    -0.14500
H757        H  0.10435883  0.00773720  0.51852375     0.20900
H758        H  0.05212199  0.02282296  0.56441718     0.16900
H759        H  0.09937556  0.02376963  0.57799163     0.19400
H760        H  0.05744592  0.00949200  0.50474412     0.12800
C761        C  0.21494478  0.38062268  0.68289499     0.16700
C762        C  0.20284608  0.36440723  0.69348622    -0.32400
C763        C  0.21898863  0.34735581  0.70161270     0.21100
C764        C  0.24595515  0.34681861  0.69940954     0.03300
C765        C  0.25799110  0.36293014  0.68881769    -0.22100
C766        C  0.24185373  0.37964350  0.68055965     0.12400
S767        S  0.19899103  0.40263976  0.67185986    -0.05800
C768        C  0.22886013  0.41028181  0.66386523    -0.09200
C769        C  0.24993137  0.39644528  0.66960254    -0.25800
S770        S  0.26222119  0.32495836  0.71030246    -0.03000
C771        C  0.23239491  0.31596461  0.71781438    -0.16500
C772        C  0.21102322  0.32957065  0.71216693    -0.14500
H773        H  0.18182843  0.36493530  0.69523896     0.20900
H774        H  0.27899298  0.36231158  0.68701687     0.16900
H775        H  0.27012609  0.39875447  0.66608091     0.19400
H776        H  0.19083212  0.32653164  0.71553336     0.12800
C777        C  0.24670686  0.16961739  0.69706911     0.16700
C778        C  0.25775933  0.15078295  0.68753470    -0.32400
C779        C  0.24115889  0.13884685  0.67712125     0.21100
C780        C  0.21484518  0.14556108  0.67616089     0.03300
C781        C  0.20380436  0.16437734  0.68567412    -0.22100
C782        C  0.22032299  0.17608574  0.69617783     0.12400
S783        S  0.26335633  0.18617867  0.71057046    -0.05800
C784        C  0.23437701  0.20176088  0.71520678    -0.09200
C785        C  0.21311055  0.19442770  0.70656139    -0.25800
S786        S  0.19798963  0.12883094  0.66286699    -0.03000
C787        C  0.22660201  0.11230007  0.65856817    -0.16500
C788        C  0.24804731  0.11975351  0.66705958    -0.14500
H789        H  0.27825362  0.14555325  0.68826661     0.20900
H790        H  0.18328454  0.16948715  0.68499726     0.16900
H791        H  0.19344945  0.20211368  0.70779148     0.19400
H792        H  0.26756214  0.11162200  0.66600033     0.12800
C793        C  0.35498426  0.60015562  0.88498504     0.16700
C794        C  0.37789176  0.61261762  0.87997241    -0.32400
C795        C  0.38391097  0.63757292  0.88574823     0.21100
C796        C  0.36799498  0.64956511  0.89616351     0.03300
C797        C  0.34510593  0.63701343  0.90125301    -0.22100
C798        C  0.33894948  0.61210988  0.89536280     0.12400
S799        S  0.34388300  0.57029085  0.87889843    -0.05800
C800        C  0.31712792  0.57394861  0.89033257    -0.09200
C801        C  0.31717859  0.59710282  0.89851757    -0.25800
S802        S  0.37867774  0.68008692  0.90160214    -0.03000
C803        C  0.40479378  0.67666387  0.88964867    -0.16500
C804        C  0.40501389  0.65298208  0.88197704    -0.14500
H805        H  0.39032764  0.60339785  0.87177171     0.20900
H806        H  0.33248237  0.64638653  0.90930667     0.16900
H807        H  0.30193841  0.60289819  0.90617908     0.19400
H808        H  0.41974476  0.64728921  0.87399192     0.12800
C809        C  0.04496502  0.49718290  0.95415779     0.16700
C810        C  0.06033572  0.48629159  0.94289659    -0.32400
C811        C  0.08242597  0.50066892  0.93819079     0.21100
C812        C  0.08890290  0.52487962  0.94437873     0.03300
C813        C  0.07335842  0.53592860  0.95552148    -0.22100
C814        C  0.05132965  0.52148867  0.96026269     0.12400
S815        S  0.01815340  0.48222882  0.96190648    -0.05800
C816        C  0.01529286  0.50912443  0.97342464    -0.09200
C817        C  0.03436775  0.52844882  0.97129943    -0.25800
S818        S  0.11704779  0.53867338  0.93753255    -0.03000
C819        C  0.12012535  0.51155441  0.92615947    -0.16500
C820        C  0.10017283  0.49299706  0.92767482    -0.14500
H821        H  0.05552855  0.46721705  0.93816881     0.20900
H822        H  0.07845026  0.55477975  0.96045017     0.16900
H823        H  0.03618881  0.54631725  0.97779554     0.19400
H824        H  0.09894276  0.47460087  0.92162593     0.12800
C825        C  0.24065730  0.37344890  0.81870608     0.16700
C826        C  0.25237732  0.35776772  0.80780708    -0.32400
C827        C  0.23589703  0.34175801  0.79921553     0.21100
C828        C  0.20891039  0.34145413  0.80131942     0.03300
C829        C  0.19717179  0.35716475  0.81223342    -0.22100
C830        C  0.21369176  0.37309452  0.82088675     0.12400
S831        S  0.25726810  0.39428201  0.83018321    -0.05800
C832        C  0.22760130  0.40272898  0.83808252    -0.09200
C833        C  0.20607669  0.38978254  0.83203378    -0.25800
S834        S  0.19242890  0.32057577  0.78974860    -0.03000
C835        C  0.22224668  0.31198424  0.78205670    -0.16500
C836        C  0.24366018  0.32491880  0.78819928    -0.14500
H837        H  0.27342907  0.35800217  0.80611563     0.20900
H838        H  0.17611624  0.35693924  0.81392371     0.16900
H839        H  0.18590594  0.39265289  0.83545215     0.19400
H840        H  0.26386219  0.32208563  0.78482372     0.12800
C841        C  0.12248033  0.89196196  0.89417188     0.16700
C842        C  0.10864891  0.86980530  0.89945994    -0.32400
C843        C  0.08442682  0.86372291  0.89287382     0.21100
C844        C  0.07442268  0.87917509  0.88164124     0.03300
C845        C  0.08815468  0.90130627  0.87642877    -0.22100
C846        C  0.11238261  0.90724531  0.88290042     0.12400
S847        S  0.15232272  0.90260023  0.90044519    -0.05800
C848        C  0.15110765  0.92791111  0.88773792    -0.09200
C849        C  0.12867541  0.92780675  0.87915068    -0.25800
S850        S  0.04519667  0.86838617  0.87479020    -0.03000
C851        C  0.04636863  0.84244839  0.88702629    -0.16500
C852        C  0.06832122  0.84258874  0.89607013    -0.14500
H853        H  0.11653660  0.85770578  0.90820522     0.20900
H854        H  0.08039443  0.91324657  0.86758501     0.16900
H855        H  0.12440353  0.94202341  0.87061176     0.19400
H856        H  0.07255546  0.82780252  0.90432370     0.12800
C857        C  0.25091128  0.13709808  0.81598790     0.16700
C858        C  0.26092909  0.15667009  0.80658288    -0.32400
C859        C  0.24320923  0.16936298  0.79716314     0.21100
C860        C  0.21671280  0.16293897  0.79710549     0.03300
C861        C  0.20670492  0.14330118  0.80649846    -0.22100
C862        C  0.22444364  0.13055038  0.81590604     0.12400
S863        S  0.26915510  0.11949505  0.82825320    -0.05800
C864        C  0.24086604  0.10294764  0.83332499    -0.09200
C865        C  0.21854871  0.11091724  0.82581349    -0.25800
S866        S  0.19848167  0.18086724  0.78492042    -0.03000
C867        C  0.22688178  0.19717182  0.77982019    -0.16500
C868        C  0.24917950  0.18893050  0.78726142    -0.14500
H869        H  0.28154379  0.16177905  0.80661597     0.20900
H870        H  0.18607574  0.13821603  0.80648246     0.16900
H871        H  0.19906620  0.10289491  0.82751969     0.19400
H872        H  0.26868031  0.19692481  0.78558260     0.12800
C873        C  0.50110145  0.90791888  0.93550802     0.16700
C874        C  0.50995092  0.93160417  0.94189379    -0.32400
C875        C  0.49601618  0.94135963  0.95406577     0.21100
C876        C  0.47412802  0.92820690  0.95954119     0.03300
C877        C  0.46534163  0.90453728  0.95318891    -0.22100
C878        C  0.47936407  0.89470455  0.94109804     0.12400
S879        S  0.51538456  0.89260457  0.92078901    -0.05800
C880        C  0.49196388  0.86797228  0.92224773    -0.09200
C881        C  0.47402988  0.87181947  0.93355907    -0.25800
S882        S  0.45976883  0.94321446  0.97427379    -0.03000
C883        C  0.48342637  0.96760689  0.97307420    -0.16500
C884        C  0.50161159  0.96391782  0.96189195    -0.14500
H885        H  0.52700564  0.94191273  0.93759990     0.20900
H886        H  0.44834234  0.89417924  0.95751946     0.16900
H887        H  0.45798434  0.85853948  0.93622114     0.19400
H888        H  0.51784977  0.97717435  0.95955159     0.12800
C889        C  0.46028032  0.11156111  0.05276905     0.16700
C890        C  0.45219980  0.08817165  0.04573131    -0.32400
C891        C  0.46892862  0.07751295  0.03494998     0.21100
C892        C  0.49266640  0.08947636  0.03144073     0.03300
C893        C  0.50071546  0.11282691  0.03846492    -0.22100
C894        C  0.48392427  0.12359887  0.04914190     0.12400
S895        S  0.44275488  0.12791731  0.06597699    -0.05800
C896        C  0.46742021  0.15143291  0.06651579    -0.09200
C897        C  0.48812524  0.14645806  0.05695715    -0.25800
S898        S  0.50999840  0.07373664  0.01796553    -0.03000
C899        C  0.48507397  0.05058582  0.01699083    -0.16500
C900        C  0.46437592  0.05526510  0.02663885    -0.14500
H901        H  0.43369681  0.07886280  0.04844175     0.20900
H902        H  0.51909636  0.12227797  0.03564766     0.16900
H903        H  0.50530318  0.15888485  0.05573054     0.19400
H904        H  0.44692523  0.04310321  0.02746571     0.12800
C905        C  0.38549774  0.00754070  0.93504492     0.16700
C906        C  0.41127709  0.01174198  0.93987797    -0.32400
C907        C  0.41675352  0.00681786  0.95469668     0.21100
C908        C  0.39743339  0.99820517  0.96436074     0.03300
C909        C  0.37173132  0.99334512  0.95942800    -0.22100
C910        C  0.36626871  0.99815580  0.94454224     0.12400
S911        S  0.37466830  0.01391578  0.91769123    -0.05800
C912        C  0.34392952  0.00337568  0.92312808    -0.09200
C913        C  0.34239971  0.99533428  0.93768818    -0.25800
S914        S  0.40797697  0.99475023  0.98210322    -0.03000
C915        C  0.43879685  0.00441990  0.97628241    -0.16500
C916        C  0.44054515  0.01014766  0.96144086    -0.14500
H917        H  0.42633846  0.01894611  0.93245443     0.20900
H918        H  0.35658177  0.98649138  0.96689887     0.16900
H919        H  0.32461392  0.98859098  0.94308510     0.19400
H920        H  0.45832743  0.01656908  0.95592354     0.12800
C921        C  0.85638004  0.10546532  0.08911726     0.16700
C922        C  0.87045306  0.12737365  0.08372564    -0.32400
C923        C  0.89237496  0.13605706  0.09176264     0.21100
C924        C  0.90007012  0.12330379  0.10450880     0.03300
C925        C  0.88613136  0.10132149  0.10983016    -0.22100
C926        C  0.86409652  0.09280797  0.10188501     0.12400
S927        S  0.82867299  0.09242721  0.08133191    -0.05800
C928        C  0.82735552  0.06972517  0.09547300    -0.09200
C929        C  0.84760920  0.07229672  0.10555913    -0.25800
S930        S  0.92665472  0.13724025  0.11291467    -0.03000
C931        C  0.92739021  0.16079559  0.09922666    -0.16500
C932        C  0.90803742  0.15755489  0.08864050    -0.14500
H933        H  0.86433297  0.13746953  0.07382203     0.20900
H934        H  0.89198395  0.09150880  0.11987466     0.16900
H935        H  0.85000312  0.06008197  0.11522378     0.19400
H936        H  0.90522317  0.17048407  0.07930522     0.12800
C937        C  0.57400898  0.01446568  0.02331010     0.16700
C938        C  0.60056377  0.01563710  0.02746625    -0.32400
C939        C  0.60682464  0.00881959  0.04200538     0.21100
C940        C  0.58755038  0.00086828  0.05186456     0.03300
C941        C  0.56107071  0.99992259  0.04775396    -0.22100
C942        C  0.55477175  0.00707544  0.03333045     0.12400
S943        S  0.56223749  0.02102015  0.00610740    -0.05800
C944        C  0.53108768  0.01424302  0.01264445    -0.09200
C945        C  0.53012534  0.00715015  0.02731566    -0.25800
S946        S  0.59899196  0.99296543  0.06888316    -0.03000
C947        C  0.63013178  0.00096610  0.06285196    -0.16500
C948        C  0.63135811  0.00902938  0.04827859    -0.14500
H949        H  0.61565667  0.02153363  0.01971594     0.20900
H950        H  0.54600553  0.99384768  0.05547504     0.16900
H951        H  0.51237027  0.00158057  0.03313218     0.19400
H952        H  0.64919293  0.01471167  0.04257308     0.12800
C953        C  0.60203254  0.41604122  0.11448709     0.16700
C954        C  0.57899212  0.40322683  0.11928868    -0.32400
C955        C  0.57150808  0.37981537  0.11204286     0.21100
C956        C  0.58630475  0.36971025  0.10055154     0.03300
C957        C  0.60924184  0.38253293  0.09575207    -0.22100
C958        C  0.61674548  0.40583737  0.10299029     0.12400
S959        S  0.61470104  0.44449922  0.12181601    -0.05800
C960        C  0.64017663  0.44253253  0.10928784    -0.09200
C961        C  0.63858745  0.42089767  0.09996147    -0.25800
S962        S  0.57414775  0.34112399  0.09321489    -0.03000
C963        C  0.54865793  0.34261786  0.10569608    -0.16500
C964        C  0.54983656  0.36435387  0.11505483    -0.14500
H965        H  0.56747687  0.41109983  0.12827582     0.20900
H966        H  0.62079964  0.37462453  0.08678917     0.16900
H967        H  0.65266051  0.41634025  0.09140925     0.19400
H968        H  0.53567836  0.36863967  0.12359999     0.12800
C969        C  0.90952402  0.52778945  0.03995898     0.16700
C970        C  0.89346551  0.53904945  0.05085337    -0.32400
C971        C  0.87117600  0.52469182  0.05539669     0.21100
C972        C  0.86510269  0.50031068  0.04929796     0.03300
C973        C  0.88124930  0.48899042  0.03850888    -0.22100
C974        C  0.90357674  0.50323388  0.03403957     0.12400
S975        S  0.93683478  0.54238118  0.03249062    -0.05800
C976        C  0.94047223  0.51491818  0.02140254    -0.09200
C977        C  0.92129612  0.49570175  0.02347308    -0.25800
S978        S  0.83696430  0.48627140  0.05601440    -0.03000
C979        C  0.83332133  0.51336286  0.06733824    -0.16500
C980        C  0.85306602  0.53224841  0.06580647    -0.14500
H981        H  0.89802513  0.55823795  0.05549766     0.20900
H982        H  0.87651289  0.46994860  0.03372767     0.16900
H983        H  0.91988360  0.47754971  0.01720100     0.19400
H984        H  0.85407078  0.55060830  0.07189680     0.12800
C985        C  0.85617736  0.36732075  0.38703275     0.16700
C986        C  0.83327578  0.37994197  0.39187239    -0.32400
C987        C  0.82620422  0.40360862  0.38493649     0.21100
C988        C  0.84114952  0.41417600  0.37360394     0.03300
C989        C  0.86394968  0.40142038  0.36866479    -0.22100
C990        C  0.87113774  0.37785379  0.37569622     0.12400
S991        S  0.86844898  0.33886838  0.39432888    -0.05800
C992        C  0.89413986  0.34117928  0.38202962    -0.09200
C993        C  0.89294906  0.36291528  0.37275580    -0.25800
S994        S  0.82958391  0.44345303  0.36693479    -0.03000
C995        C  0.80435426  0.44150354  0.37958889    -0.16500
C996        C  0.80502335  0.41911674  0.38837414    -0.14500
H997        H  0.82164892  0.37184111  0.40079099     0.20900
H998        H  0.87576280  0.40969089  0.35986831     0.16900
H999        H  0.90731054  0.36768469  0.36436758     0.19400
H1000       H  0.79101873  0.41456592  0.39698303     0.12800
C1001       C  0.54254939  0.52507910  0.45436851     0.16700
C1002       C  0.55752491  0.53707711  0.44323048    -0.32400
C1003       C  0.57868405  0.52272077  0.43737075     0.21100
C1004       C  0.58449178  0.49747221  0.44230802     0.03300
C1005       C  0.56938768  0.48540767  0.45332497    -0.22100
C1006       C  0.54842259  0.49982011  0.45925953     0.12400
S1007       S  0.51684112  0.53956012  0.46338015    -0.05800
C1008       C  0.51382180  0.51115682  0.47372379    -0.09200
C1009       C  0.53209985  0.49178850  0.47039051    -0.25800
S1010       S  0.61158501  0.48376317  0.43434452    -0.03000
C1011       C  0.61546209  0.51242119  0.42431143    -0.16500
C1012       C  0.59628797  0.53134965  0.42693809    -0.14500
H1013       H  0.55317923  0.55692538  0.43949112     0.20900
H1014       H  0.57408376  0.46576739  0.45729882     0.16900
H1015       H  0.53384750  0.47307717  0.47609168     0.19400
H1016       H  0.59568101  0.55067360  0.42184058     0.12800
C1017       C  0.71371698  0.88017622  0.17661087     0.16700
C1018       C  0.70351013  0.86034585  0.18579394    -0.32400
C1019       C  0.72085213  0.84806446  0.19559252     0.21100
C1020       C  0.74716091  0.85519848  0.19619787     0.03300
C1021       C  0.75730788  0.87512833  0.18709020    -0.22100
C1022       C  0.73998392  0.88740180  0.17730299     0.12400
S1023       S  0.69609112  0.89710572  0.16378573    -0.05800
C1024       C  0.72441129  0.91413906  0.15927849    -0.09200
C1025       C  0.74622767  0.90693791  0.16743431    -0.25800
S1026       S  0.76507655  0.83779256  0.20867358    -0.03000
C1027       C  0.73682501  0.82077113  0.21323787    -0.16500
C1028       C  0.71475181  0.82834337  0.20539911    -0.14500
H1029       H  0.68302012  0.85466680  0.18527502     0.20900
H1030       H  0.77783116  0.88072614  0.18756124     0.16900
H1031       H  0.76570095  0.91527531  0.16612619     0.19400
H1032       H  0.69534220  0.81988505  0.20678987     0.12800
C1033       C  0.72069197  0.63963360  0.18133216     0.16700
C1034       C  0.70955117  0.65553886  0.19232702    -0.32400
C1035       C  0.72618116  0.67328887  0.19970628     0.21100
C1036       C  0.75275882  0.67485374  0.19641537     0.03300
C1037       C  0.76386910  0.65898313  0.18541144    -0.22100
C1038       C  0.74719252  0.64149408  0.17790608     0.12400
S1039       S  0.70380384  0.61730075  0.17090559    -0.05800
C1040       C  0.73265194  0.61070214  0.16161987    -0.09200
C1041       C  0.75418493  0.62496442  0.16660043    -0.25800
S1042       S  0.76963220  0.69757972  0.20659212    -0.03000
C1043       C  0.74054227  0.70539905  0.21528134    -0.16500
C1044       C  0.71900846  0.69086008  0.21049458    -0.14500
H1045       H  0.68882017  0.65431712  0.19490982     0.20900
H1046       H  0.78454596  0.66039435  0.18272261     0.16900
H1047       H  0.77385440  0.62350653  0.16214572     0.19400
H1048       H  0.69918489  0.69310111  0.21463301     0.12800
C1049       C  0.74638368  0.68166788  0.30001559     0.16700
C1050       C  0.75597558  0.66517889  0.31117052    -0.32400
C1051       C  0.73750339  0.65106660  0.31960697     0.21100
C1052       C  0.71074605  0.65348344  0.31717460     0.03300
C1053       C  0.70117956  0.66988821  0.30600768    -0.22100
C1054       C  0.71963128  0.68380306  0.29749719     0.12400
S1055       S  0.76542868  0.70036481  0.28847882    -0.05800
C1056       C  0.73700382  0.71104520  0.28012215    -0.09200
C1057       C  0.71412030  0.70058085  0.28610120    -0.25800
S1058       S  0.69155704  0.63484748  0.32862406    -0.03000
C1059       C  0.71988302  0.62328351  0.33664874    -0.16500
C1060       C  0.74289681  0.63363268  0.33073590    -0.14500
H1061       H  0.77677454  0.66333162  0.31312279     0.20900
H1062       H  0.68039311  0.67164455  0.30401525     0.16900
H1063       H  0.69453206  0.70504132  0.28234481     0.19400
H1064       H  0.76245412  0.62866113  0.33435601     0.12800
C1065       C  0.57620368  0.13621250  0.37980575     0.16700
C1066       C  0.59030476  0.11411258  0.37489495    -0.32400
C1067       C  0.61444468  0.10871766  0.38164423     0.21100
C1068       C  0.62416210  0.12458491  0.39280283     0.03300
C1069       C  0.61006169  0.14673641  0.39771023    -0.22100
C1070       C  0.58588283  0.15214218  0.39094914     0.12400
S1071       S  0.54659667  0.14610515  0.37298487    -0.05800
C1072       C  0.54712177  0.17209925  0.38524884    -0.09200
C1073       C  0.56928544  0.17276208  0.39412909    -0.25800
S1074       S  0.65382516  0.11455619  0.39955091    -0.03000
C1075       C  0.65317120  0.08871014  0.38717857    -0.16500
C1076       C  0.63097198  0.08815970  0.37836333    -0.14500
H1077       H  0.58279042  0.10166604  0.36617895     0.20900
H1078       H  0.61760305  0.15920765  0.40640943     0.16900
H1079       H  0.57316583  0.18756949  0.40243536     0.19400
H1080       H  0.62702863  0.07349562  0.36999169     0.12800
C1081       C  0.88875751  0.01466734  0.43499031     0.16700
C1082       C  0.91471237  0.01297493  0.44013075    -0.32400
C1083       C  0.91907867  0.01750159  0.45516068     0.21100
C1084       C  0.89849354  0.02321062  0.46464581     0.03300
C1085       C  0.87267842  0.02527334  0.45947177    -0.22100
C1086       C  0.86834769  0.02100975  0.44445647     0.12400
S1087       S  0.87903539  0.00911215  0.41727195    -0.05800
C1088       C  0.84722042  0.01589427  0.42265336    -0.09200
C1089       C  0.84457612  0.02202421  0.43742576    -0.25800
S1090       S  0.90753003  0.02692989  0.48256774    -0.03000
C1091       C  0.93951512  0.02130529  0.47724786    -0.16500
C1092       C  0.94277680  0.01655023  0.46233502    -0.14500
H1093       H  0.93074075  0.00816014  0.43277398     0.20900
H1094       H  0.85661335  0.02983472  0.46685874     0.16900
H1095       H  0.82613078  0.02649250  0.44281833     0.19400
H1096       H  0.96141310  0.01226963  0.45710938     0.12800
C1097       C  0.75710198  0.88797851  0.31164004     0.16700
C1098       C  0.76737742  0.86972010  0.30159853    -0.32400
C1099       C  0.74955812  0.85489837  0.29323136     0.21100
C1100       C  0.72264145  0.85792884  0.29481550     0.03300
C1101       C  0.71230986  0.87627794  0.30488422    -0.22100
C1102       C  0.73021027  0.89131403  0.31319586     0.12400
S1103       S  0.77563124  0.90777105  0.32272608    -0.05800
C1104       C  0.74694851  0.92112474  0.32948168    -0.09200
C1105       C  0.72422699  0.91044938  0.32340744    -0.25800
S1106       S  0.70448018  0.83768645  0.28366050    -0.03000
C1107       C  0.73352160  0.82504905  0.27683624    -0.16500
C1108       C  0.75590773  0.83619412  0.28293283    -0.14500
H1109       H  0.78835032  0.86720468  0.30034798     0.20900
H1110       H  0.69133152  0.87877209  0.30614625     0.16900
H1111       H  0.70445604  0.91623859  0.32634713     0.19400
H1112       H  0.77581301  0.83073736  0.28007967     0.12800
loop_ 
_geom_bond_atom_site_label_1 
_geom_bond_atom_site_label_2 
_geom_bond_distance 
_geom_bond_site_symmetry_2 
_ccdc_geom_bond_type 
N1            N2   1.322       .  A
N1            C5   1.348       .  A
N1           Cu9   2.078   1_565  S
N2            C3   1.346       .  A
N2           Cu8   2.087       .  S
C3            C4   1.386       .  A
C3            H6   1.082       .  S
C4            C5   1.386       .  A
C4         C1104   1.479       .  S
C5            H7   1.080       .  S
Cu8          N11   2.087   1_565  S
Cu9          N19   2.079       .  S
Cu10         N12   2.083       .  S
Cu10         N18   2.084       .  S
N11          N12   1.323       .  A
N11          C15   1.348       .  A
N12          C13   1.347       .  A
C13          C14   1.386       .  A
C13          H16   1.081       .  S
C14          C15   1.386       .  A
C14        C1088   1.479       .  S
C15          H17   1.083   1_545  S
N18          N19   1.323       .  A
N18          C22   1.347       .  A
N19          C20   1.345       .  A
C20          C21   1.386       .  A
C20          H23   1.081       .  S
C21          C22   1.386       .  A
C21        C1075   1.480       .  S
C22          H24   1.081       .  S
O25         Cu33   2.010       .  S
O25          C35   1.278       .  A
O26         Cu33   2.014       .  S
O26          C36   1.278       .  A
O27         Cu33   2.008       .  S
O27          C37   1.277       .  A
O28         Cu33   2.015       .  S
O28          C38   1.278       .  A
O29         Cu34   2.013       .  S
O29          C38   1.279       .  A
O30         Cu34   2.017       .  S
O30          C37   1.279       .  A
O31         Cu34   2.020       .  S
O31          C36   1.279       .  A
O32         Cu34   2.021       .  S
O32          C35   1.279       .  A
Cu33        Cu34   2.373       .  S
C35        C1107   1.477       .  S
C36        C1043   1.477       .  S
C37        C1027   1.474       .  S
C38        C1056   1.476       .  S
N39          N40   1.323       .  A
N39          C43   1.345       .  A
N39         Cu47   2.072       .  S
N40          C41   1.346       .  A
N40         Cu46   2.084       .  S
C41          C42   1.385       .  A
C41          H44   1.083       .  S
C42          C43   1.383       .  A
C42        C1059   1.475       .  S
C43          H45   1.080       .  S
Cu46         N49   2.083       .  S
Cu47         N57   2.072       .  S
Cu48         N50   2.083       .  S
Cu48         N56   2.083       .  S
N49          N50   1.323       .  A
N49          C53   1.348       .  A
N50          C51   1.345       .  A
C51          C52   1.385       .  A
C51          H54   1.081       .  S
C52          C53   1.386       .  A
C52        C1011   1.479       .  S
C53          H55   1.082       .  S
N56          N57   1.322       .  A
N56          C60   1.347       .  A
N57          C58   1.345       .  A
C58          C59   1.384       .  A
C58          H61   1.082       .  S
C59          C60   1.387       .  A
C59         C995   1.478       .  S
C60          H62   1.081       .  S
N63          N64   1.322       .  A
N63          C67   1.343       .  A
N63         Cu71   2.066       .  S
N64          C65   1.349       .  A
N64         Cu70   2.088       .  S
C65          C66   1.389       .  A
C65          H68   1.081       .  S
C66          C67   1.382       .  A
C66        C1040   1.478       .  S
C67          H69   1.081       .  S
Cu70         N73   2.088       .  S
Cu71         N81   2.066       .  S
Cu72         N74   2.093       .  S
Cu72         N80   2.092       .  S
N73          N74   1.324       .  A
N73          C77   1.348       .  A
N74          C75   1.347       .  A
C75          C76   1.387       .  A
C75          H78   1.081       .  S
C76          C77   1.386       .  A
C76         C979   1.482       .  S
C77          H79   1.081       .  S
N80          N81   1.321       .  A
N80          C84   1.348       .  A
N81          C82   1.345       .  A
C82          C83   1.383       .  A
C82          H85   1.082       .  S
C83          C84   1.390       .  A
C83         C960   1.481       .  S
C84          H86   1.081       .  S
N87          N88   1.322       .  A
N87          C91   1.347       .  A
N87         Cu95   2.084       .  S
N88          C89   1.345       .  A
N88         Cu94   2.074       .  S
C89          C90   1.384       .  A
C89          H92   1.082       .  S
C90          C91   1.387       .  A
C90        C1024   1.478       .  S
C91          H93   1.080       .  S
Cu94         N97   2.075       .  S
Cu95        N105   2.084   1_565  S
Cu96         N98   2.084       .  S
Cu96        N104   2.084       .  S
N97          N98   1.322   1_565  A
N97         C101   1.345       .  A
N98          C99   1.347       .  A
C99         C100   1.386   1_545  A
C99         H102   1.081       .  S
C100        C101   1.384       .  A
C100        C947   1.478   1_565  S
C101        H103   1.083       .  S
N104        N105   1.322       .  A
N104        C108   1.347       .  A
N105        C106   1.347       .  A
C106        C107   1.387       .  A
C106        H109   1.081       .  S
C107        C108   1.386       .  A
C107        C928   1.482       .  S
C108        H110   1.082       .  S
C111        C112   1.419       .  A
C111        C116   1.409   1_554  A
C111        C899   1.489       .  S
C112        C113   1.405   1_544  A
C112        C944   1.480       .  S
C113        C114   1.403       .  A
C113        H118   1.083       .  S
C114        C115   1.412   1_565  A
C114        C883   1.482       .  S
C115        C116   1.405       .  A
C115        C915   1.480       .  S
C116        H117   1.083       .  S
N119        N120   1.323       .  A
N119        C123   1.348       .  A
N119       Cu127   2.085       .  S
N120        C121   1.345       .  A
N120       Cu126   2.079       .  S
C121        C122   1.384       .  A
C121        H124   1.082       .  S
C122        C123   1.387       .  A
C122        C864   1.479       .  S
C123        H125   1.080       .  S
Cu126       N129   2.078       .  S
Cu127       N137   2.086   1_545  S
Cu128       N130   2.076       .  S
Cu128       N136   2.076       .  S
N129        N130   1.321   1_545  A
N129        C133   1.345       .  A
N130        C131   1.347       .  A
C131        C132   1.386   1_565  A
C131        H134   1.082       .  S
C132        C133   1.385       .  A
C132        C912   1.477       .  S
C133        H135   1.082       .  S
N136        N137   1.323       .  A
N136        C140   1.345       .  A
N137        C138   1.347       .  A
C138        C139   1.388       .  A
C138        H141   1.081       .  S
C139        C140   1.383       .  A
C139        C848   1.479       .  S
C140        H142   1.081       .  S
N143        N144   1.322       .  A
N143        C147   1.344       .  A
N143       Cu151   2.072       .  S
N144        C145   1.349       .  A
N144       Cu150   2.094       .  S
C145        C146   1.389       .  A
C145        H148   1.081       .  S
C146        C147   1.384       .  A
C146        C832   1.482       .  S
C147        H149   1.082       .  S
Cu150       N153   2.094       .  S
Cu151       N161   2.072       .  S
Cu152       N154   2.067       .  S
Cu152       N160   2.066       .  S
N153        N154   1.323       .  A
N153        C157   1.347       .  A
N154        C155   1.344       .  A
C155        C156   1.382       .  A
C155        H158   1.082       .  S
C156        C157   1.388       .  A
C156        C819   1.477       .  S
C157        H159   1.082       .  S
N160        N161   1.321       .  A
N160        C164   1.345       .  A
N161        C162   1.343       .  A
C162        C163   1.384       .  A
C162        H165   1.082       .  S
C163        C164   1.385       .  A
C163        C800   1.473       .  S
C164        H166   1.081       .  S
O167       Cu175   2.025       .  S
O167        C177   1.280       .  A
O168       Cu175   2.026       .  S
O168        C178   1.280       .  A
O169       Cu175   2.002       .  S
O169        C179   1.277       .  A
O170       Cu175   2.005       .  S
O170        C180   1.277       .  A
O171       Cu176   2.027       .  S
O171        C180   1.280       .  A
O172       Cu176   2.026       .  S
O172        C179   1.280       .  A
O173       Cu176   2.019       .  S
O173        C178   1.279       .  A
O174       Cu176   2.017       .  S
O174        C177   1.278       .  A
Cu175      Cu176   2.371       .  S
C177        C835   1.480       .  S
C178        C784   1.481       .  S
C179        C771   1.475       .  S
C180        C867   1.477       .  S
N181        N182   1.324       .  A
N181        C185   1.349       .  A
N181       Cu189   2.090       .  S
N182        C183   1.345       .  A
N182       Cu188   2.086       .  S
C183        C184   1.385       .  A
C183        H186   1.082       .  S
C184        C185   1.388       .  A
C184        C787   1.483       .  S
C185        H187   1.080       .  S
Cu188       N191   2.084       .  S
Cu189       N199   2.089       .  S
Cu190       N192   2.057       .  S
Cu190       N198   2.057   1_545  S
N191        N192   1.321       .  A
N191        C195   1.348       .  A
N192        C193   1.342       .  A
C193        C194   1.380       .  A
C193        H196   1.081   1_545  S
C194        C195   1.387       .  A
C194        C752   1.472       .  S
C195        H197   1.083       .  S
N198        N199   1.322   1_565  A
N198        C202   1.343       .  A
N199        C200   1.347   1_545  A
C200        C201   1.388       .  A
C200        H203   1.081       .  S
C201        C202   1.381       .  A
C201        C739   1.475       .  S
C202        H204   1.082       .  S
N205        N206   1.324       .  A
N205        C209   1.345       .  A
N205       Cu213   2.079       .  S
N206        C207   1.349       .  A
N206       Cu212   2.092       .  S
C207        C208   1.388       .  A
C207        H210   1.082       .  S
C208        C209   1.382       .  A
C208        C768   1.478       .  S
C209        H211   1.081       .  S
Cu212       N215   2.091       .  S
Cu213       N223   2.079       .  S
Cu214       N216   2.078       .  S
Cu214       N222   2.077       .  S
N215        N216   1.323       .  A
N215        C219   1.350       .  A
N216        C217   1.344       .  A
C217        C218   1.383       .  A
C217        H220   1.081       .  S
C218        C219   1.388       .  A
C218        C720   1.479       .  S
C219        H221   1.082       .  S
N222        N223   1.320       .  A
N222        C226   1.345       .  A
N223        C224   1.348       .  A
C224        C225   1.388       .  A
C224        H227   1.082       .  S
C225        C226   1.386       .  A
C225        C704   1.481       .  S
C226        H228   1.081       .  S
C229        C230   1.417       .  A
C229        C234   1.404       .  A
C229        C976   1.486       .  S
C230        C231   1.405   1_554  A
C230        C672   1.477       .  S
C231        C232   1.403       .  A
C231        H236   1.083   1_655  S
C232        C233   1.412       .  A
C232        C816   1.484   1_655  S
C233        C234   1.402   1_556  A
C233        C688   1.473       .  S
C234        H235   1.083       .  S
O237       Cu245   2.004       .  S
O237        C247   1.276       .  A
O238       Cu245   2.001       .  S
O238        C248   1.277       .  A
O239       Cu245   2.030       .  S
O239        C249   1.280       .  A
O240       Cu245   2.030       .  S
O240        C250   1.280       .  A
O241       Cu246   1.998       .  S
O241        C250   1.276       .  A
O242       Cu246   2.001       .  S
O242        C249   1.276       .  A
O243       Cu246   2.027       .  S
O243        C248   1.280       .  A
O244       Cu246   2.024       .  S
O244        C247   1.280       .  A
Cu245      Cu246   2.372       .  S
C247        C656   1.475       .  S
C248        C627   1.475       .  S
C249        C640   1.475       .  S
C250        C611   1.476       .  S
N251        N252   1.322       .  A
N251        C255   1.345       .  A
N251       Cu259   2.071       .  S
N252        C253   1.346       .  A
N252       Cu258   2.086       .  S
C253        C254   1.387       .  A
C253        H256   1.081       .  S
C254        C255   1.383       .  A
C254        C643   1.478       .  S
C255        H257   1.081       .  S
Cu258       N261   2.085       .  S
Cu259       N269   2.070       .  S
Cu260       N262   2.080       .  S
Cu260       N268   2.079       .  S
N261        N262   1.322       .  A
N261        C265   1.347       .  A
N262        C263   1.346       .  A
C263        C264   1.387       .  A
C263        H266   1.081       .  S
C264        C265   1.387       .  A
C264        C880   1.481       .  S
C265        H267   1.082       .  S
N268        N269   1.322       .  A
N268        C272   1.346       .  A
N269        C270   1.344       .  A
C270        C271   1.385       .  A
C270        H273   1.082       .  S
C271        C272   1.385       .  A
C271        C803   1.475       .  S
C272        H274   1.082       .  S
N275        N276   1.322       .  A
N275        C279   1.346       .  A
N275       Cu283   2.079       .  S
N276        C277   1.347       .  A
N276       Cu282   2.083       .  S
C277        C278   1.388       .  A
C277        H280   1.081       .  S
C278        C279   1.385       .  A
C278        C624   1.481       .  S
C279        H281   1.081       .  S
Cu282       N285   2.084       .  S
Cu283       N293   2.079       .  S
Cu284       N286   2.072       .  S
Cu284       N292   2.071   1_655  S
N285        N286   1.324       .  A
N285        C289   1.347       .  A
N286        C287   1.343       .  A
C287        C288   1.382       .  A
C287        H290   1.081       .  S
C288        C289   1.384       .  A
C288        C691   1.472       .  S
C289        H291   1.082       .  S
N292        N293   1.321   1_455  A
N292        C296   1.348       .  A
N293        C294   1.343   1_655  A
C294        C295   1.385       .  A
C294        H297   1.082   1_455  S
C295        C296   1.387       .  A
C295        C851   1.478       .  S
C296        H298   1.081       .  S
N299        N300   1.322       .  A
N299        C303   1.344       .  A
N299       Cu307   2.066       .  S
N300        C301   1.349       .  A
N300       Cu306   2.093       .  S
C301        C302   1.389       .  A
C301        H304   1.082       .  S
C302        C303   1.383       .  A
C302        C659   1.479       .  S
C303        H305   1.081       .  S
Cu306       N309   2.094       .  S
Cu307       N317   2.065       .  S
Cu308       N310   2.084       .  S
Cu308       N316   2.083       .  S
N309        N310   1.324       .  A
N309        C313   1.349       .  A
N310        C311   1.346       .  A
C311        C312   1.385       .  A
C311        H314   1.082       .  S
C312        C313   1.387       .  A
C312        C595   1.481       .  S
C313        H315   1.083       .  S
N316        N317   1.322       .  A
N316        C320   1.347       .  A
N317        C318   1.343       .  A
C318        C319   1.383       .  A
C318        H321   1.082       .  S
C319        C320   1.387       .  A
C319        C736   1.476       .  S
C320        H322   1.081       .  S
N323        N324   1.321       .  A
N323        C327   1.344       .  A
N323       Cu331   2.065       .  S
N324        C325   1.348       .  A
N324       Cu330   2.092       .  S
C325        C326   1.389       .  A
C325        H328   1.083       .  S
C326        C327   1.383       .  A
C326        C608   1.479       .  S
C327        H329   1.081       .  S
Cu330       N333   2.093       .  S
Cu331       N341   2.065       .  S
Cu332       N334   2.087       .  S
Cu332       N340   2.086   1_655  S
N333        N334   1.324       .  A
N333        C337   1.348       .  A
N334        C335   1.347       .  A
C335        C336   1.385       .  A
C335        H338   1.081   1_655  S
C336        C337   1.387       .  A
C336        C576   1.482       .  S
C337        H339   1.081       .  S
N340        N341   1.321   1_455  A
N340        C344   1.349       .  A
N341        C342   1.342   1_655  A
C342        C343   1.382       .  A
C342        H345   1.081       .  S
C343        C344   1.389       .  A
C343        C707   1.479       .  S
C344        H346   1.082       .  S
N347        N348   1.323       .  A
N347        C351   1.345       .  A
N347       Cu355   2.075       .  S
N348        C349   1.346       .  A
N348       Cu354   2.082       .  S
C349        C350   1.385       .  A
C349        H352   1.082       .  S
C350        C351   1.385       .  A
C350        C560   1.477       .  S
C351        H353   1.081       .  S
Cu354       N357   2.083       .  S
Cu355       N365   2.075   1_455  S
Cu356       N358   2.081       .  S
Cu356       N364   2.082       .  S
N357        N358   1.323   1_455  A
N357        C361   1.347       .  A
N358        C359   1.345       .  A
C359        C360   1.383       .  A
C359        H362   1.082       .  S
C360        C361   1.386   1_655  A
C360        C675   1.477       .  S
C361        H363   1.083       .  S
N364        N365   1.321       .  A
N364        C368   1.348       .  A
N365        C366   1.345       .  A
C366        C367   1.385       .  A
C366        H369   1.082       .  S
C367        C368   1.388       .  A
C367        C931   1.481       .  S
C368        H370   1.081       .  S
N371        N372   1.322       .  A
N371        C375   1.348       .  A
N371       Cu379   2.085       .  S
N372        C373   1.345       .  A
N372       Cu378   2.078       .  S
C373        C374   1.385       .  A
C373        H376   1.082       .  S
C374        C375   1.387       .  A
C374        C547   1.479       .  S
C375        H377   1.081       .  S
Cu378       N381   2.078       .  S
Cu379       N389   2.085       .  S
Cu380       N382   2.092       .  S
Cu380       N388   2.093       .  S
N381        N382   1.322       .  A
N381        C385   1.346       .  A
N382        C383   1.348       .  A
C383        C384   1.389       .  A
C383        H386   1.080       .  S
C384        C385   1.385       .  A
C384        C896   1.482       .  S
C385        H387   1.083       .  S
N388        N389   1.323       .  A
N388        C392   1.347       .  A
N389        C390   1.349       .  A
C390        C391   1.387       .  A
C390        H393   1.080       .  S
C391        C392   1.387       .  A
C391        C963   1.484       .  S
C392        H394   1.082       .  S
O395       Cu403   2.012       .  S
O395        C405   1.278       .  A
O396       Cu403   2.012       .  S
O396        C406   1.278       .  A
O397       Cu403   2.010       .  S
O397        C407   1.278       .  A
O398       Cu403   2.010       .  S
O398        C408   1.278       .  A
O399       Cu404   2.021       .  S
O399        C408   1.279       .  A
O400       Cu404   2.017       .  S
O400        C407   1.279       .  A
O401       Cu404   2.015       .  S
O401        C406   1.278       .  A
O402       Cu404   2.016       .  S
O402        C405   1.279       .  A
Cu403      Cu404   2.372       .  S
C405        C563   1.475       .  S
C406        C531   1.475       .  S
C407        C512   1.474       .  S
C408        C544   1.476       .  S
N409        N410   1.323       .  A
N409        C413   1.345       .  A
N409       Cu417   2.068   1_455  S
N410        C411   1.347       .  A
N410       Cu416   2.092       .  S
C411        C412   1.387       .  A
C411        H414   1.081       .  S
C412        C413   1.382       .  A
C412        C515   1.477       .  S
C413        H415   1.081       .  S
Cu416       N419   2.092   1_455  S
Cu417       N427   2.067       .  S
Cu418       N420   2.074       .  S
Cu418       N426   2.074       .  S
N419        N420   1.322       .  A
N419        C423   1.350   1_655  A
N420        C421   1.343       .  A
C421        C422   1.383       .  A
C421        H424   1.081       .  S
C422        C423   1.389   1_655  A
C422        C499   1.481       .  S
C423        H425   1.081       .  S
N426        N427   1.321       .  A
N426        C430   1.345       .  A
N427        C428   1.344       .  A
C428        C429   1.384       .  A
C428        H431   1.081       .  S
C429        C430   1.385       .  A
C429        C992   1.475       .  S
C430        H432   1.082       .  S
N433        N434   1.324       .  A
N433        C437   1.345       .  A
N433       Cu441   2.084       .  S
N434        C435   1.348       .  A
N434       Cu440   2.087       .  S
C435        C436   1.387       .  A
C435        H438   1.081       .  S
C436        C437   1.384       .  A
C436        C528   1.480       .  S
C437        H439   1.081       .  S
Cu440       N443   2.086       .  S
Cu441       N451   2.083       .  S
Cu442       N444   2.080       .  S
Cu442       N450   2.080       .  S
N443        N444   1.323       .  A
N443        C447   1.349       .  A
N444        C445   1.344       .  A
C445        C446   1.384       .  A
C445        H448   1.082       .  S
C446        C447   1.388       .  A
C446        C480   1.480       .  S
C447        H449   1.082       .  S
N450        N451   1.321       .  A
N450        C454   1.347       .  A
N451        C452   1.347       .  A
C452        C453   1.388       .  A
C452        H455   1.082       .  S
C453        C454   1.387       .  A
C453       C1072   1.482       .  S
C454        H456   1.081       .  S
C457        C458   1.419       .  A
C457        C462   1.406       .  A
C457       C1091   1.481       .  S
C458        C459   1.407   1_655  A
C458        C496   1.491       .  S
C459        C460   1.407       .  A
C459        H464   1.083       .  S
C460        C461   1.414   1_445  A
C460        C755   1.480       .  S
C461        C462   1.404   1_565  A
C461        C579   1.487       .  S
C462        H463   1.083   1_545  S
C465        C466   1.412       .  A
C465        C470   1.404       .  A
C465        C483   1.477       .  S
C466        C467   1.403       .  A
C466       C1008   1.481       .  S
C467        C468   1.405       .  A
C467        H472   1.084       .  S
C468        C469   1.417       .  A
C468        C592   1.482       .  S
C469        C470   1.408       .  A
C469        C723   1.484       .  S
C470        H471   1.083       .  S
C473        C478   1.386       .  A
C473        C474   1.401       .  A
C473        S479   1.705       .  A
C474        C475   1.401       .  A
C474        H485   1.081       .  S
C475        C484   1.371       .  A
C475        C476   1.387       .  A
C476        C477   1.406       .  A
C476        S482   1.711       .  A
C477        C478   1.406       .  A
C477        H486   1.081       .  S
C478        C481   1.376       .  A
S479        C480   1.724       .  A
C480        C481   1.390       .  A
C481        H487   1.082       .  S
S482        C483   1.723       .  A
C483        C484   1.384       .  A
C484        H488   1.082       .  S
C489        C494   1.385       .  A
C489        C490   1.407   1_655  A
C489        S495   1.711   1_655  A
C490        C491   1.407   1_455  A
C490        H501   1.080       .  S
C491        C500   1.377   1_655  A
C491        C492   1.386       .  A
C492        C493   1.402       .  A
C492        S498   1.705       .  A
C493        C494   1.402       .  A
C493        H502   1.080       .  S
C494        C497   1.371       .  A
S495        C496   1.728   1_455  A
C496        C497   1.389       .  A
C497        H503   1.081       .  S
S498        C499   1.724       .  A
C499        C500   1.390   1_655  A
C500        H504   1.081       .  S
C505        C510   1.387       .  A
C505        C506   1.401       .  A
C505        S511   1.706       .  A
C506        C507   1.402       .  A
C506        H517   1.083       .  S
C507        C516   1.371       .  A
C507        C508   1.387       .  A
C508        C509   1.403       .  A
C508        S514   1.708       .  A
C509        C510   1.404       .  A
C509        H518   1.083       .  S
C510        C513   1.372       .  A
S511        C512   1.723       .  A
C512        C513   1.388       .  A
C513        H519   1.083       .  S
S514        C515   1.725       .  A
C515        C516   1.386       .  A
C516        H520   1.083       .  S
C521        C526   1.386       .  A
C521        C522   1.402       .  A
C521        S527   1.706       .  A
C522        C523   1.403       .  A
C522        H533   1.082       .  S
C523        C532   1.372       .  A
C523        C524   1.387       .  A
C524        C525   1.404       .  A
C524        S530   1.709       .  A
C525        C526   1.404       .  A
C525        H534   1.082       .  S
C526        C529   1.374       .  A
S527        C528   1.725       .  A
C528        C529   1.389       .  A
C529        H535   1.082       .  S
S530        C531   1.724       .  A
C531        C532   1.388       .  A
C532        H536   1.082       .  S
C537        C542   1.386       .  A
C537        C538   1.405       .  A
C537        S543   1.712       .  A
C538        C539   1.406       .  A
C538        H549   1.083       .  S
C539        C548   1.375       .  A
C539        C540   1.386       .  A
C540        C541   1.401       .  A
C540        S546   1.706       .  A
C541        C542   1.402       .  A
C541        H550   1.083       .  S
C542        C545   1.370       .  A
S543        C544   1.726       .  A
C544        C545   1.387       .  A
C545        H551   1.083       .  S
S546        C547   1.724       .  A
C547        C548   1.390       .  A
C548        H552   1.083       .  S
C553        C558   1.386       .  A
C553        C554   1.402       .  A
C553        S559   1.707       .  A
C554        C555   1.403       .  A
C554        H565   1.083       .  S
C555        C564   1.372       .  A
C555        C556   1.387       .  A
C556        C557   1.403       .  A
C556        S562   1.708       .  A
C557        C558   1.404       .  A
C557        H566   1.083       .  S
C558        C561   1.372       .  A
S559        C560   1.723       .  A
C560        C561   1.389       .  A
C561        H567   1.082       .  S
S562        C563   1.724       .  A
C563        C564   1.387       .  A
C564        H568   1.083       .  S
C569        C574   1.386       .  A
C569        C570   1.404   1_655  A
C569        S575   1.709   1_655  A
C570        C571   1.404   1_455  A
C570        H581   1.083       .  S
C571        C580   1.373       .  A
C571        C572   1.386       .  A
C572        C573   1.404       .  A
C572        S578   1.710       .  A
C573        C574   1.405       .  A
C573        H582   1.083       .  S
C574        C577   1.374       .  A
S575        C576   1.726   1_455  A
C576        C577   1.389       .  A
C577        H583   1.082       .  S
S578        C579   1.725       .  A
C579        C580   1.389       .  A
C580        H584   1.083   1_655  S
C585        C590   1.387       .  A
C585        C586   1.407       .  A
C585        S591   1.715       .  A
C586        C587   1.408       .  A
C586        H597   1.083       .  S
C587        C596   1.378       .  A
C587        C588   1.387       .  A
C588        C589   1.400       .  A
C588        S594   1.706       .  A
C589        C590   1.401       .  A
C589        H598   1.084       .  S
C590        C593   1.369       .  A
S591        C592   1.726       .  A
C592        C593   1.384       .  A
C593        H599   1.084       .  S
S594        C595   1.723       .  A
C595        C596   1.391       .  A
C596        H600   1.083       .  S
C601        C606   1.386       .  A
C601        C602   1.401       .  A
C601        S607   1.708       .  A
C602        C603   1.402       .  A
C602        H613   1.080       .  S
C603        C612   1.369       .  A
C603        C604   1.386       .  A
C604        C605   1.405       .  A
C604        S610   1.714       .  A
C605        C606   1.407       .  A
C605        H614   1.081       .  S
C606        C609   1.373       .  A
S607        C608   1.722       .  A
C608        C609   1.391       .  A
C609        H615   1.081       .  S
S610        C611   1.725       .  A
C611        C612   1.387       .  A
C612        H616   1.081       .  S
C617        C622   1.386       .  A
C617        C618   1.406       .  A
C617        S623   1.710       .  A
C618        C619   1.406       .  A
C618        H629   1.082       .  S
C619        C628   1.376       .  A
C619        C620   1.387       .  A
C620        C621   1.401       .  A
C620        S626   1.704       .  A
C621        C622   1.401       .  A
C621        H630   1.082       .  S
C622        C625   1.372       .  A
S623        C624   1.727       .  A
C624        C625   1.387       .  A
C625        H631   1.082       .  S
S626        C627   1.723       .  A
C627        C628   1.389       .  A
C628        H632   1.082       .  S
C633        C638   1.387       .  A
C633        C634   1.401       .  A
C633        S639   1.704       .  A
C634        C635   1.401       .  A
C634        H645   1.083       .  S
C635        C644   1.371       .  A
C635        C636   1.386       .  A
C636        C637   1.405       .  A
C636        S642   1.709       .  A
C637        C638   1.405       .  A
C637        H646   1.083       .  S
C638        C641   1.375       .  A
S639        C640   1.723       .  A
C640        C641   1.389       .  A
C641        H647   1.083       .  S
S642        C643   1.726       .  A
C643        C644   1.386       .  A
C644        H648   1.083       .  S
C649        C654   1.387       .  A
C649        C650   1.403       .  A
C649        S655   1.707       .  A
C650        C651   1.403       .  A
C650        H661   1.084       .  S
C651        C660   1.374       .  A
C651        C652   1.387       .  A
C652        C653   1.403       .  A
C652        S658   1.706       .  A
C653        C654   1.403       .  A
C653        H662   1.084       .  S
C654        C657   1.373       .  A
S655        C656   1.725       .  A
C656        C657   1.387       .  A
C657        H663   1.084       .  S
S658        C659   1.725       .  A
C659        C660   1.388       .  A
C660        H664   1.083       .  S
C665        C670   1.387       .  A
C665        C666   1.400       .  A
C665        S671   1.705       .  A
C666        C667   1.401       .  A
C666        H677   1.084       .  S
C667        C676   1.371       .  A
C667        C668   1.387       .  A
C668        C669   1.404       .  A
C668        S674   1.709       .  A
C669        C670   1.404       .  A
C669        H678   1.084       .  S
C670        C673   1.372       .  A
S671        C672   1.721       .  A
C672        C673   1.388       .  A
C673        H679   1.084       .  S
S674        C675   1.726       .  A
C675        C676   1.386       .  A
C676        H680   1.083   1_655  S
C681        C686   1.387       .  A
C681        C682   1.400       .  A
C681        S687   1.708       .  A
C682        C683   1.402       .  A
C682        H693   1.081       .  S
C683        C692   1.367       .  A
C683        C684   1.387       .  A
C684        C685   1.402       .  A
C684        S690   1.709       .  A
C685        C686   1.403       .  A
C685        H694   1.081       .  S
C686        C689   1.368       .  A
S687        C688   1.720       .  A
C688        C689   1.385       .  A
C689        H695   1.082       .  S
S690        C691   1.723       .  A
C691        C692   1.386       .  A
C692        H696   1.082       .  S
C697        C702   1.386       .  A
C697        C698   1.403       .  A
C697        S703   1.707       .  A
C698        C699   1.403       .  A
C698        H709   1.083       .  S
C699        C708   1.374       .  A
C699        C700   1.386       .  A
C700        C701   1.403       .  A
C700        S706   1.706       .  A
C701        C702   1.404       .  A
C701        H710   1.083       .  S
C702        C705   1.374       .  A
S703        C704   1.725       .  A
C704        C705   1.389       .  A
C705        H711   1.083       .  S
S706        C707   1.726       .  A
C707        C708   1.388       .  A
C708        H712   1.082       .  S
C713        C718   1.387       .  A
C713        C714   1.402       .  A
C713        S719   1.705       .  A
C714        C715   1.402       .  A
C714        H725   1.083       .  S
C715        C724   1.371       .  A
C715        C716   1.386       .  A
C716        C717   1.404       .  A
C716        S722   1.709       .  A
C717        C718   1.405       .  A
C717        H726   1.082       .  S
C718        C721   1.375       .  A
S719        C720   1.724       .  A
C720        C721   1.389       .  A
C721        H727   1.082       .  S
S722        C723   1.726       .  A
C723        C724   1.388       .  A
C724        H728   1.083       .  S
C729        C734   1.387       .  A
C729        C730   1.400       .  A
C729        S735   1.704       .  A
C730        C731   1.401       .  A
C730        H741   1.083       .  S
C731        C740   1.369       .  A
C731        C732   1.386       .  A
C732        C733   1.403       .  A
C732        S738   1.707       .  A
C733        C734   1.403       .  A
C733        H742   1.083       .  S
C734        C737   1.372       .  A
S735        C736   1.724       .  A
C736        C737   1.388       .  A
C737        H743   1.082       .  S
S738        C739   1.726       .  A
C739        C740   1.385       .  A
C740        H744   1.082       .  S
C745        C750   1.387       .  A
C745        C746   1.401       .  A
C745        S751   1.705       .  A
C746        C747   1.401       .  A
C746        H757   1.085       .  S
C747        C756   1.370       .  A
C747        C748   1.387       .  A
C748        C749   1.402       .  A
C748        S754   1.707       .  A
C749        C750   1.402       .  A
C749        H758   1.084       .  S
C750        C753   1.372       .  A
S751        C752   1.723       .  A
C752        C753   1.386       .  A
C753        H759   1.083       .  S
S754        C755   1.725       .  A
C755        C756   1.385       .  A
C756        H760   1.084       .  S
C761        C766   1.386       .  A
C761        C762   1.405       .  A
C761        S767   1.709       .  A
C762        C763   1.405       .  A
C762        H773   1.082       .  S
C763        C772   1.376       .  A
C763        C764   1.387       .  A
C764        C765   1.401       .  A
C764        S770   1.704       .  A
C765        C766   1.401       .  A
C765        H774   1.081       .  S
C766        C769   1.372       .  A
S767        C768   1.726       .  A
C768        C769   1.386       .  A
C769        H775   1.082       .  S
S770        C771   1.723       .  A
C771        C772   1.389       .  A
C772        H776   1.082       .  S
C777        C782   1.386       .  A
C777        C778   1.406       .  A
C777        S783   1.712       .  A
C778        C779   1.407       .  A
C778        H789   1.079       .  S
C779        C788   1.376       .  A
C779        C780   1.386       .  A
C780        C781   1.404       .  A
C780        S786   1.708       .  A
C781        C782   1.405       .  A
C781        H790   1.079       .  S
C782        C785   1.374       .  A
S783        C784   1.726       .  A
C784        C785   1.390       .  A
C785        H791   1.080       .  S
S786        C787   1.725       .  A
C787        C788   1.391       .  A
C788        H792   1.080       .  S
C793        C798   1.387       .  A
C793        C794   1.399       .  A
C793        S799   1.704       .  A
C794        C795   1.400       .  A
C794        H805   1.084       .  S
C795        C804   1.368       .  A
C795        C796   1.386       .  A
C796        C797   1.402       .  A
C796        S802   1.708       .  A
C797        C798   1.403       .  A
C797        H806   1.084       .  S
C798        C801   1.371       .  A
S799        C800   1.722       .  A
C800        C801   1.388       .  A
C801        H807   1.083       .  S
S802        C803   1.725       .  A
C803        C804   1.386       .  A
C804        H808   1.083       .  S
C809        C814   1.386       .  A
C809        C810   1.402       .  A
C809        S815   1.709       .  A
C810        C811   1.403       .  A
C810        H821   1.084       .  S
C811        C820   1.371       .  A
C811        C812   1.387       .  A
C812        C813   1.402       .  A
C812        S818   1.707       .  A
C813        C814   1.403       .  A
C813        H822   1.084       .  S
C814        C817   1.370       .  A
S815        C816   1.723       .  A
C816        C817   1.388       .  A
C817        H823   1.084       .  S
S818        C819   1.725       .  A
C819        C820   1.387       .  A
C820        H824   1.083       .  S
C825        C830   1.386       .  A
C825        C826   1.403       .  A
C825        S831   1.707       .  A
C826        C827   1.404       .  A
C826        H837   1.082       .  S
C827        C836   1.374       .  A
C827        C828   1.386       .  A
C828        C829   1.405       .  A
C828        S834   1.711       .  A
C829        C830   1.406       .  A
C829        H838   1.082       .  S
C830        C833   1.376       .  A
S831        C832   1.726       .  A
C832        C833   1.389       .  A
C833        H839   1.082       .  S
S834        C835   1.726       .  A
C835        C836   1.388       .  A
C836        H840   1.082       .  S
C841        C846   1.386       .  A
C841        C842   1.405       .  A
C841        S847   1.709       .  A
C842        C843   1.406       .  A
C842        H853   1.083       .  S
C843        C852   1.375       .  A
C843        C844   1.387       .  A
C844        C845   1.400       .  A
C844        S850   1.703       .  A
C845        C846   1.400       .  A
C845        H854   1.083       .  S
C846        C849   1.370       .  A
S847        C848   1.727       .  A
C848        C849   1.386       .  A
C849        H855   1.082       .  S
S850        C851   1.723       .  A
C851        C852   1.390       .  A
C852        H856   1.083       .  S
C857        C862   1.386       .  A
C857        C858   1.403       .  A
C857        S863   1.707       .  A
C858        C859   1.404       .  A
C858        H869   1.080       .  S
C859        C868   1.372       .  A
C859        C860   1.386       .  A
C860        C861   1.404       .  A
C860        S866   1.711       .  A
C861        C862   1.405       .  A
C861        H870   1.080       .  S
C862        C865   1.374       .  A
S863        C864   1.725       .  A
C864        C865   1.389       .  A
C865        H871   1.081       .  S
S866        C867   1.724       .  A
C867        C868   1.389       .  A
C868        H872   1.081       .  S
C873        C878   1.386       .  A
C873        C874   1.404       .  A
C873        S879   1.710       .  A
C874        C875   1.405       .  A
C874        H885   1.083       .  S
C875        C884   1.374       .  A
C875        C876   1.387       .  A
C876        C877   1.402       .  A
C876        S882   1.705       .  A
C877        C878   1.402       .  A
C877        H886   1.083       .  S
C878        C881   1.372       .  A
S879        C880   1.726       .  A
C880        C881   1.388       .  A
C881        H887   1.082       .  S
S882        C883   1.724       .  A
C883        C884   1.387       .  A
C884        H888   1.083       .  S
C889        C894   1.386       .  A
C889        C890   1.406       .  A
C889        S895   1.710       .  A
C890        C891   1.406       .  A
C890        H901   1.079       .  S
C891        C900   1.375       .  A
C891        C892   1.386       .  A
C892        C893   1.403       .  A
C892        S898   1.707       .  A
C893        C894   1.404       .  A
C893        H902   1.079       .  S
C894        C897   1.374       .  A
S895        C896   1.727       .  A
C896        C897   1.388       .  A
C897        H903   1.080       .  S
S898        C899   1.726       .  A
C899        C900   1.391       .  A
C900        H904   1.081       .  S
C905        C910   1.387   1_545  A
C905        C906   1.401       .  A
C905        S911   1.707       .  A
C906        C907   1.402       .  A
C906        H917   1.083       .  S
C907        C916   1.369       .  A
C907        C908   1.387   1_545  A
C908        C909   1.405       .  A
C908        S914   1.714       .  A
C909        C910   1.406       .  A
C909        H918   1.083       .  S
C910        C913   1.375       .  A
S911        C912   1.722       .  A
C912        C913   1.389   1_545  A
C913        H919   1.083       .  S
S914        C915   1.724   1_565  A
C915        C916   1.385       .  A
C916        H920   1.083       .  S
C921        C926   1.386       .  A
C921        C922   1.405       .  A
C921        S927   1.710       .  A
C922        C923   1.405       .  A
C922        H933   1.084       .  S
C923        C932   1.375       .  A
C923        C924   1.386       .  A
C924        C925   1.402       .  A
C924        S930   1.707       .  A
C925        C926   1.403       .  A
C925        H934   1.084       .  S
C926        C929   1.373       .  A
S927        C928   1.726       .  A
C928        C929   1.389       .  A
C929        H935   1.083       .  S
S930        C931   1.725       .  A
C931        C932   1.390       .  A
C932        H936   1.083       .  S
C937        C942   1.387       .  A
C937        C938   1.406       .  A
C937        S943   1.712       .  A
C938        C939   1.406       .  A
C938        H949   1.083       .  S
C939        C948   1.375       .  A
C939        C940   1.387       .  A
C940        C941   1.401   1_545  A
C940        S946   1.706   1_545  A
C941        C942   1.401   1_565  A
C941        H950   1.083       .  S
C942        C945   1.370       .  A
S943        C944   1.725       .  A
C944        C945   1.384       .  A
C945        H951   1.083       .  S
S946        C947   1.723   1_565  A
C947        C948   1.390       .  A
C948        H952   1.083       .  S
C953        C958   1.386       .  A
C953        C954   1.406       .  A
C953        S959   1.711       .  A
C954        C955   1.407       .  A
C954        H965   1.082       .  S
C955        C964   1.377       .  A
C955        C956   1.386       .  A
C956        C957   1.402       .  A
C956        S962   1.707       .  A
C957        C958   1.402       .  A
C957        H966   1.082       .  S
C958        C961   1.373       .  A
S959        C960   1.728       .  A
C960        C961   1.387       .  A
C961        H967   1.082       .  S
S962        C963   1.724       .  A
C963        C964   1.392       .  A
C964        H968   1.081       .  S
C969        C974   1.386       .  A
C969        C970   1.405       .  A
C969        S975   1.711       .  A
C970        C971   1.406       .  A
C970        H981   1.083       .  S
C971        C980   1.375       .  A
C971        C972   1.386       .  A
C972        C973   1.402       .  A
C972        S978   1.708       .  A
C973        C974   1.403       .  A
C973        H982   1.083       .  S
C974        C977   1.372       .  A
S975        C976   1.727       .  A
C976        C977   1.387       .  A
C977        H983   1.083       .  S
S978        C979   1.725       .  A
C979        C980   1.391       .  A
C980        H984   1.082       .  S
C985        C990   1.386       .  A
C985        C986   1.401       .  A
C985        S991   1.706       .  A
C986        C987   1.402       .  A
C986        H997   1.083       .  S
C987        C996   1.371       .  A
C987        C988   1.386       .  A
C988        C989   1.402       .  A
C988        S994   1.707       .  A
C989        C990   1.403       .  A
C989        H998   1.083       .  S
C990        C993   1.371       .  A
S991        C992   1.723       .  A
C992        C993   1.388       .  A
C993        H999   1.082       .  S
S994        C995   1.725       .  A
C995        C996   1.387       .  A
C996       H1000   1.082       .  S
C1001      C1006   1.387       .  A
C1001      C1002   1.404       .  A
C1001      S1007   1.709       .  A
C1002      C1003   1.405       .  A
C1002      H1013   1.084       .  S
C1003      C1012   1.374       .  A
C1003      C1004   1.387       .  A
C1004      C1005   1.401       .  A
C1004      S1010   1.705       .  A
C1005      C1006   1.401       .  A
C1005      H1014   1.085       .  S
C1006      C1009   1.370       .  A
S1007      C1008   1.724       .  A
C1008      C1009   1.386       .  A
C1009      H1015   1.083       .  S
S1010      C1011   1.724       .  A
C1011      C1012   1.389       .  A
C1012      H1016   1.082       .  S
C1017      C1022   1.386       .  A
C1017      C1018   1.403       .  A
C1017      S1023   1.707       .  A
C1018      C1019   1.404       .  A
C1018      H1029   1.082       .  S
C1019      C1028   1.373       .  A
C1019      C1020   1.387       .  A
C1020      C1021   1.402       .  A
C1020      S1026   1.706       .  A
C1021      C1022   1.402       .  A
C1021      H1030   1.082       .  S
C1022      C1025   1.372       .  A
S1023      C1024   1.725       .  A
C1024      C1025   1.388       .  A
C1025      H1031   1.082       .  S
S1026      C1027   1.723       .  A
C1027      C1028   1.388       .  A
C1028      H1032   1.082       .  S
C1033      C1038   1.386       .  A
C1033      C1034   1.404       .  A
C1033      S1039   1.707       .  A
C1034      C1035   1.404       .  A
C1034      H1045   1.082       .  S
C1035      C1044   1.374       .  A
C1035      C1036   1.387       .  A
C1036      C1037   1.403       .  A
C1036      S1042   1.707       .  A
C1037      C1038   1.403       .  A
C1037      H1046   1.082       .  S
C1038      C1041   1.373       .  A
S1039      C1040   1.726       .  A
C1040      C1041   1.387       .  A
C1041      H1047   1.082       .  S
S1042      C1043   1.724       .  A
C1043      C1044   1.389       .  A
C1044      H1048   1.082       .  S
C1049      C1054   1.386       .  A
C1049      C1050   1.404       .  A
C1049      S1055   1.710       .  A
C1050      C1051   1.405       .  A
C1050      H1061   1.078       .  S
C1051      C1060   1.372       .  A
C1051      C1052   1.386       .  A
C1052      C1053   1.402       .  A
C1052      S1058   1.708       .  A
C1053      C1054   1.403       .  A
C1053      H1062   1.078       .  S
C1054      C1057   1.371       .  A
S1055      C1056   1.725       .  A
C1056      C1057   1.387       .  A
C1057      H1063   1.080       .  S
S1058      C1059   1.723       .  A
C1059      C1060   1.389       .  A
C1060      H1064   1.080       .  S
C1065      C1070   1.386       .  A
C1065      C1066   1.402       .  A
C1065      S1071   1.708       .  A
C1066      C1067   1.403       .  A
C1066      H1077   1.083       .  S
C1067      C1076   1.372       .  A
C1067      C1068   1.386       .  A
C1068      C1069   1.404       .  A
C1068      S1074   1.710       .  A
C1069      C1070   1.405       .  A
C1069      H1078   1.083       .  S
C1070      C1073   1.374       .  A
S1071      C1072   1.725       .  A
C1072      C1073   1.390       .  A
C1073      H1079   1.082       .  S
S1074      C1075   1.726       .  A
C1075      C1076   1.388       .  A
C1076      H1080   1.082       .  S
C1081      C1086   1.386       .  A
C1081      C1082   1.406       .  A
C1081      S1087   1.712       .  A
C1082      C1083   1.406       .  A
C1082      H1093   1.082       .  S
C1083      C1092   1.375       .  A
C1083      C1084   1.387       .  A
C1084      C1085   1.401       .  A
C1084      S1090   1.707       .  A
C1085      C1086   1.402       .  A
C1085      H1094   1.083       .  S
C1086      C1089   1.372       .  A
S1087      C1088   1.726       .  A
C1088      C1089   1.387       .  A
C1089      H1095   1.083       .  S
S1090      C1091   1.722       .  A
C1091      C1092   1.389       .  A
C1092      H1096   1.082       .  S
C1097      C1102   1.386       .  A
C1097      C1098   1.401       .  A
C1097      S1103   1.706       .  A
C1098      C1099   1.401       .  A
C1098      H1109   1.081       .  S
C1099      C1108   1.370       .  A
C1099      C1100   1.386       .  A
C1100      C1101   1.406       .  A
C1100      S1106   1.713       .  A
C1101      C1102   1.407       .  A
C1101      H1110   1.081       .  S
C1102      C1105   1.376       .  A
S1103      C1104   1.722       .  A
C1104      C1105   1.391       .  A
C1105      H1111   1.082       .  S
S1106      C1107   1.726       .  A
C1107      C1108   1.387       .  A
C1108      H1112   1.082       .  S
