geometry optimzed in LAMMPS
_audit_creation_date              2020-11-30 
_audit_creation_method            'lammps2cif' 
_symmetry_space_group_name_H-M    'P1' 
_symmetry_Int_Tables_number       1 
_symmetry_cell_setting            triclinic 
loop_ 
_symmetry_equiv_pos_as_xyz 
  x,y,z 
_cell_length_a                    60.26978057500937 
_cell_length_b                    57.640027774708905 
_cell_length_c                    30.259651276820165 
_cell_angle_alpha                 79.17799603604898 
_cell_angle_beta                  94.84508651117395 
_cell_angle_gamma                 127.89949126105054 
loop_ 
_atom_site_label 
_atom_site_type_symbol 
_atom_site_fract_x 
_atom_site_fract_y 
_atom_site_fract_z 
_atom_site_charge 
O1          O  0.06763878  0.04965039  0.05554091    -0.75160
O2          O  0.05303524  0.07760256  0.04114020    -0.54070
C3          C  0.07309799  0.07496912  0.04678664     0.78570
O4          O  0.99363038  0.01078129  0.84589798    -0.59760
O5          O  0.98138581  0.46386753  0.86645813    -0.52790
C6          C  0.98611182  0.48582594  0.83738311     0.70580
O7          O  0.01161576  0.08184693  0.91700494    -0.74320
O8          O  0.52224926  0.08758499  0.99034870    -0.54880
C9          C  0.51796161  0.09550210  0.95035078     0.76590
O10         O  0.06083296  0.99594096  0.96296065    -0.59460
O11         O  0.02387076  0.45803123  0.93020488    -0.52580
C12         C  0.05057216  0.47512594  0.93987972     0.73180
Zr13       Zr  0.04711254  0.01938249  0.99869395     2.54710
O14         O  0.08887695  0.06286127  0.95490448    -0.80030
O15         O  0.07511342  0.00707229  0.04387283    -0.93450
Zr16       Zr  0.00590203  0.03730065  0.90819715     2.64680
O17         O  0.05253943  0.07280868  0.87161230    -0.98400
O18         O  0.48817880  0.05380213  0.84496893    -0.80460
O19         O  0.03160718  0.04883709  0.97445614    -0.83820
O20         O  0.02279861  0.00911417  0.93056836    -2.18530
O21         O  0.47508402  0.41681649  0.05898851    -0.67210
O22         O  0.96684569  0.41110061  0.98524228    -0.51770
C23         C  0.97000520  0.40321507  0.02589709     0.71560
O24         O  0.42387805  0.50711960  0.00370500    -0.60120
O25         O  0.46094857  0.04365996  0.03870862    -0.52090
C26         C  0.43518225  0.02950492  0.02396428     0.73360
O27         O  0.42141679  0.44612472  0.92791251    -0.71510
O28         O  0.43109836  0.41484071  0.94577951    -0.50190
C29         C  0.41293724  0.41988645  0.94375272     0.74750
O30         O  0.47897844  0.48193960  0.13308285    -0.66840
O31         O  0.49690084  0.03116030  0.11264753    -0.54040
C32         C  0.48695979  0.00720045  0.14138807     0.73130
Zr33       Zr  0.47788474  0.45951659  0.07178219     2.77540
O34         O  0.43323988  0.41844671  0.11112982    -0.97590
O35         O  0.00400081  0.45296750  0.13201974    -0.78410
Zr36       Zr  0.43578437  0.47755048  0.98258907     2.70070
O37         O  0.39862223  0.43887319  0.03819244    -0.79660
O38         O  0.39955689  0.47789082  0.94068248    -0.98740
Zr39       Zr  0.50083500  0.03931225  0.03249799     2.21500
Zr40       Zr  0.98248396  0.45790719  0.94663656     2.11130
O41         O  0.45346476  0.45033645  0.00612739    -2.47430
O42         O  0.46104518  0.48807759  0.04947736    -0.79450
O43         O  0.00800515  0.46863979  0.01410667    -0.71650
O44         O  0.47506278  0.02795713  0.96535525    -2.32600
O45         O  0.01697888  0.00999305  0.05736639    -2.28810
O46         O  0.46530903  0.48649196  0.92320101    -0.73410
H47         H  0.03452538  0.01248941  0.90648623     0.78590
H48         H  0.46846443  0.03965571  0.95622167     0.79680
H49         H  0.43800448  0.42995061  0.01555037     0.81900
H50         H  0.02518903  0.01352677  0.08645747     0.79510
H51         H  0.46791711  0.04229305  0.85270645     0.42550
H52         H  0.39915022  0.47267764  0.91112407     0.41520
H53         H  0.39950470  0.44968491  0.06095778     0.41190
H54         H  0.43851456  0.41361146  0.14137323     0.39130
H55         H  0.02089909  0.45858959  0.11651905     0.42260
H56         H  0.07014443  0.00480689  0.07556762     0.37040
H57         H  0.08474388  0.07717328  0.94502094     0.43160
H58         H  0.05134776  0.06452747  0.84488043     0.39580
H59         H  0.42440653  0.42761931  0.11638263     0.44490
H60         H  0.09474982  0.02558303  0.03886863     0.43220
H61         H  0.05380443  0.09076006  0.85912627     0.43350
H62         H  0.38151797  0.46062214  0.95641944     0.43710
O63         O  0.46049638  0.41909060  0.44200735    -0.75160
O64         O  0.00695622  0.45146598  0.42963530    -0.54070
C65         C  0.98407395  0.42429927  0.43921180     0.78570
O66         O  0.41123559  0.99299951  0.45352227    -0.59760
O67         O  0.40957777  0.98318727  0.53057829    -0.52790
C68         C  0.40085466  0.98807012  0.49261200     0.70580
O69         O  0.46278719  0.99654647  0.34842476    -0.74320
O70         O  0.00281054  0.00005429  0.35091209    -0.54880
C71         C  0.98327691  0.99982618  0.33002463     0.76590
O72         O  0.42009778  0.41089195  0.56804197    -0.59460
O73         O  0.41652723  0.44285808  0.59480221    -0.52580
C74         C  0.40973874  0.41669680  0.59540333     0.73180
Zr75       Zr  0.45047683  0.43316936  0.50261925     2.54710
O76         O  0.40414381  0.39473781  0.47792266    -0.80030
O77         O  0.45238821  0.39434849  0.54596493    -0.93450
Zr78       Zr  0.44572586  0.99087886  0.42271699     2.64680
O79         O  0.40340985  0.44728705  0.39729185    -0.98400
O80         O  0.44032576  0.02404247  0.36877139    -0.80460
O81         O  0.46414631  0.46416075  0.43099896    -0.83820
O82         O  0.43179132  0.45940594  0.49369171    -2.18530
O83         O  0.50173751  0.48976264  0.62878388    -0.67210
O84         O  0.46589158  0.49318624  0.62477391    -0.51770
C85         C  0.48315305  0.48995207  0.64675612     0.71560
O86         O  0.04096683  0.07915878  0.40582432    -0.60120
O87         O  0.05713769  0.05347849  0.40143088    -0.52090
C88         C  0.06051189  0.07853523  0.39612364     0.73360
O89         O  0.50636093  0.07369963  0.53196447    -0.71510
O90         O  0.45983162  0.03946535  0.54669035    -0.50190
C91         C  0.48247186  0.06698351  0.53910530     0.74750
O92         O  0.05737957  0.99946973  0.51867447    -0.66840
O93         O  0.05407418  0.00118547  0.44235615    -0.54040
C94         C  0.06525931  0.00010105  0.47953097     0.73130
Zr95       Zr  0.02065545  0.99813682  0.55396892     2.77540
O96         O  0.06231746  0.04054760  0.58271530    -0.97590
O97         O  0.02622103  0.46395745  0.60457849    -0.78410
Zr98       Zr  0.01421695  0.05611945  0.47432506     2.70070
O99         O  0.06038116  0.09922237  0.49143009    -0.79660
O100        O  0.00148441  0.08620383  0.43105903    -0.98740
Zr101      Zr  0.01445841  0.99957821  0.42816232     2.21500
Zr102      Zr  0.45271651  0.99144705  0.54881833     2.11130
O103        O  0.50285437  0.02556545  0.54598079    -2.47430
O104        O  0.03428491  0.03079431  0.48395536    -0.79450
O105        O  0.47081311  0.46403101  0.55790981    -0.71650
O106        O  0.99514926  0.02569569  0.41811222    -2.32600
O107        O  0.00035373  0.46692441  0.49984704    -2.28810
O108        O  0.46472529  0.02239468  0.47756097    -0.73410
H109        H  0.41153575  0.44556050  0.49764362     0.78590
H110        H  0.99979360  0.03742734  0.38832586     0.79680
H111        H  0.50978830  0.03683498  0.57029497     0.81900
H112        H  0.00753645  0.45566636  0.50517741     0.79510
H113        H  0.45953247  0.04324756  0.36384296     0.42550
H114        H  0.48070899  0.07355234  0.43335377     0.41520
H115        H  0.07173377  0.09195717  0.49786691     0.41190
H116        H  0.05492579  0.04589088  0.60356310     0.39130
H117        H  0.50985318  0.44392848  0.59912907     0.42260
H118        H  0.47263882  0.40380652  0.54895336     0.37040
H119        H  0.40514166  0.40099661  0.44490402     0.43160
H120        H  0.38842284  0.44003814  0.41961569     0.39580
H121        H  0.07039391  0.03193938  0.60260299     0.44490
H122        H  0.44546730  0.37960313  0.52593981     0.43220
H123        H  0.39882325  0.45554136  0.36953659     0.43350
H124        H  0.00820820  0.10224263  0.44832643     0.43710
O125        O  0.08200434  0.27913561  0.98027713    -0.75160
O126        O  0.05890947  0.24847876  0.92826898    -0.54070
C127        C  0.07965297  0.26263570  0.95443779     0.78570
O128        O  0.99575029  0.22299783  0.13466719    -0.59760
O129        O  0.98290944  0.25338895  0.12774748    -0.52790
C130        C  0.99003902  0.23798228  0.15114866     0.70580
O131        O  0.50825794  0.18369028  0.03020755    -0.74320
O132        O  0.51525863  0.19674492  0.95345018    -0.54880
C133        C  0.51386060  0.18183465  0.99133857     0.76590
O134        O  0.06451607  0.32297256  0.05540925    -0.59460
O135        O  0.02584493  0.31097978  0.09005500    -0.52580
C136        C  0.05264678  0.32559206  0.08511477     0.73180
Zr137      Zr  0.05676251  0.29621359  0.99743604     2.54710
O138        O  0.10094089  0.31577284  0.03475056    -0.80030
O139        O  0.08656223  0.34298214  0.94515359    -0.93450
Zr140      Zr  0.99739674  0.21265222  0.06000063     2.64680
O141        O  0.03068115  0.20940083  0.10660581    -0.98400
O142        O  0.45798267  0.16333248  0.09682979    -0.80460
O143        O  0.03215515  0.24474298  0.00114967    -0.83820
O144        O  0.02265839  0.26441849  0.05746786    -2.18530
O145        O  0.49594240  0.32687360  0.95075038    -0.67210
O146        O  0.99516401  0.31774881  0.02759631    -0.51770
C147        C  0.49500844  0.33164208  0.99015079     0.71560
O148        O  0.44869503  0.21095208  0.90309039    -0.60120
O149        O  0.47049192  0.19179149  0.89939719    -0.52090
C150        C  0.44807313  0.18981138  0.89461097     0.73360
O151        O  0.41458009  0.22406151  0.00487678    -0.71510
O152        O  0.44054126  0.26108856  0.04661311    -0.50190
C153        C  0.41808649  0.24370213  0.02482286     0.74750
O154        O  0.49560903  0.27795367  0.84856203    -0.66840
O155        O  0.51180421  0.25100071  0.85100709    -0.54040
C156        C  0.50097269  0.26335658  0.83044157     0.73130
Zr157      Zr  0.50273063  0.29553506  0.91929484     2.77540
O158        O  0.47216040  0.30351205  0.87231665    -0.97590
O159        O  0.04354566  0.34273625  0.88003079    -0.78410
Zr160      Zr  0.44248480  0.21174733  0.98028820     2.70070
O161        O  0.39445881  0.18268028  0.95466873    -0.79660
O162        O  0.41829092  0.16045161  0.01949979    -0.98740
Zr163      Zr  0.51101531  0.23468049  0.93072505     2.21500
Zr164      Zr  0.98820274  0.27268300  0.04815825     2.11130
O165        O  0.46737224  0.26375864  0.97698853    -2.47430
O166        O  0.47745431  0.24392574  0.92182286    -0.79450
O167        O  0.02386949  0.30566682  0.98947763    -0.71650
O168        O  0.47525050  0.20156660  0.99010047    -2.32600
O169        O  0.03696132  0.28722705  0.92608453    -2.28810
O170        O  0.46256340  0.22045082  0.05188868    -0.73410
H171        H  0.03203391  0.26922019  0.08549514     0.78590
H172        H  0.46609346  0.18097274  0.98814577     0.79680
H173        H  0.45588130  0.27015368  0.96922073     0.81900
H174        H  0.05086525  0.29843567  0.90148306     0.79510
H175        H  0.45045763  0.15093166  0.07299153     0.42550
H176        H  0.40439119  0.15698031  0.04045650     0.41520
H177        H  0.38194063  0.17142818  0.98207647     0.41190
H178        H  0.45938375  0.28534759  0.85859971     0.39130
H179        H  0.04906571  0.35733812  0.89962464     0.42260
H180        H  0.10173253  0.34281855  0.93538996     0.37040
H181        H  0.09575994  0.30105505  0.06267868     0.43160
H182        H  0.04388097  0.22918140  0.11591630     0.39580
H183        H  0.45960254  0.30219013  0.89344628     0.44490
H184        H  0.09593827  0.35854171  0.96440155     0.43220
H185        H  0.01973450  0.19549832  0.13450236     0.43350
H186        H  0.40690832  0.14766758  0.99672548     0.43710
O187        O  0.06064790  0.25347449  0.55609231    -0.75160
O188        O  0.06343307  0.25333005  0.48127579    -0.54070
C189        C  0.07245520  0.25459968  0.52123646     0.78570
O190        O  0.42099834  0.16823149  0.56483084    -0.59760
O191        O  0.40743918  0.19653027  0.54602269    -0.52790
C192        C  0.40226786  0.17088505  0.55084778     0.70580
O193        O  0.47153153  0.16955930  0.46242188    -0.74320
O194        O  0.01841914  0.20184358  0.46091421    -0.54880
C195        C  0.99519004  0.17475885  0.46588166     0.76590
O196        O  0.49723254  0.24836975  0.63648554    -0.59460
O197        O  0.45806527  0.24612508  0.62174556    -0.52580
C198        C  0.47642989  0.24703205  0.64819847     0.73180
Zr199      Zr  0.01885805  0.24947365  0.57162777     2.54710
O200        O  0.01321861  0.20945964  0.62700183    -0.80030
O201        O  0.05712046  0.28817810  0.61105528    -0.93450
Zr202      Zr  0.45683055  0.18656345  0.51013379     2.64680
O203        O  0.45780222  0.15029752  0.56460316    -0.98400
O204        O  0.41775671  0.14596907  0.47486220    -0.80460
O205        O  0.00588786  0.21861514  0.51774623    -0.83820
O206        O  0.46967653  0.21696517  0.56535614    -2.18530
O207        O  0.50611148  0.33100657  0.51535367    -0.67210
O208        O  0.45948675  0.29451543  0.53045196    -0.51770
C209        C  0.48117988  0.32244134  0.52004850     0.71560
O210        O  0.48175739  0.24861712  0.35036355    -0.60120
O211        O  0.01947586  0.24831907  0.36623643    -0.52090
C212        C  0.00158085  0.24807962  0.33920755     0.73360
O213        O  0.41636545  0.23867543  0.43717679    -0.71510
O214        O  0.41390661  0.24050211  0.51144568    -0.50190
C215        C  0.40414580  0.23710786  0.47213789     0.74750
O216        O  0.05342221  0.32343034  0.41797577    -0.66840
O217        O  0.07248091  0.30061941  0.43069024    -0.54040
C218        C  0.07482615  0.32460178  0.42843300     0.73130
Zr219      Zr  0.02300486  0.31074975  0.47913552     2.77540
O220        O  0.03105914  0.35407280  0.42966697    -0.97590
O221        O  0.06232567  0.34336192  0.52367391    -0.78410
Zr222      Zr  0.46045659  0.24768247  0.41649346     2.70070
O223        O  0.46556665  0.28880745  0.36515259    -0.79660
O224        O  0.42386239  0.21155034  0.37203195    -0.98740
Zr225      Zr  0.02560467  0.25054003  0.44655609     2.21500
Zr226      Zr  0.45404150  0.24682216  0.54095407     2.11130
O227        O  0.47405058  0.27882356  0.46968337    -2.47430
O228        O  0.00991291  0.28046712  0.42358407    -0.79450
O229        O  0.50346666  0.27935418  0.54982479    -0.71650
O230        O  0.47583546  0.21810186  0.43892801    -2.32600
O231        O  0.03819499  0.28116281  0.50234939    -2.28810
O232        O  0.44128599  0.21585338  0.48632385    -0.73410
H233        H  0.46181968  0.20518777  0.59488932     0.78590
H234        H  0.47090500  0.20650099  0.41559559     0.79680
H235        H  0.46715447  0.29008023  0.45873558     0.81900
H236        H  0.05800999  0.29384351  0.50727589     0.79510
H237        H  0.41849052  0.15537733  0.44351355     0.42550
H238        H  0.41136914  0.19333236  0.39448461     0.41520
H239        H  0.48580232  0.30581415  0.36535737     0.41190
H240        H  0.51211541  0.34889064  0.42497854     0.39130
H241        H  0.05449404  0.33613337  0.55498488     0.42260
H242        H  0.07240067  0.30238519  0.58781114     0.37040
H243        H  0.01575719  0.19834693  0.60939298     0.43160
H244        H  0.47788380  0.15873994  0.56588527     0.39580
H245        H  0.04053983  0.37008133  0.44810554     0.44490
H246        H  0.06404545  0.27831075  0.63094045     0.43220
H247        H  0.44889420  0.13280240  0.54949875     0.43350
H248        H  0.41268263  0.21871023  0.36164745     0.43710
O249        O  0.17236426  0.43093222  0.07301549    -0.75160
O250        O  0.15599152  0.42064833  0.00280397    -0.54070
C251        C  0.15288062  0.41618467  0.04628426     0.78570
O252        O  0.24071722  0.06843535  0.02980311    -0.59760
O253        O  0.28520293  0.08391736  0.04648670    -0.52790
C254        C  0.26445045  0.08546760  0.04739265     0.70580
O255        O  0.16998127  0.00355555  0.95658680    -0.74320
O256        O  0.15495403  0.46149388  0.93144304    -0.54880
C257        C  0.15126241  0.48063998  0.93840302     0.76590
O258        O  0.24842035  0.49749773  0.13105177    -0.59460
O259        O  0.28995720  0.04264502  0.10608327    -0.52580
C260        C  0.27144106  0.02237941  0.13740443     0.73180
Zr261      Zr  0.22175426  0.47031433  0.07030527     2.54710
O262        O  0.19524438  0.46018669  0.13702810    -0.80030
O263        O  0.22640925  0.43223423  0.10704341    -0.93450
Zr264      Zr  0.21715719  0.02892212  0.98696901     2.64680
O265        O  0.18018388  0.01939536  0.03265219    -0.98400
O266        O  0.22459779  0.07081804  0.93425234    -0.80460
O267        O  0.19697801  0.47866776  0.01226760    -0.83820
O268        O  0.24104260  0.02051296  0.04689957    -2.18530
O269        O  0.31824451  0.00580771  0.00233792    -0.67210
O270        O  0.33077836  0.04494375  0.03468966    -0.51770
C271        C  0.33646199  0.02869291  0.02131446     0.71560
O272        O  0.23902148  0.00778551  0.84265929    -0.60120
O273        O  0.19629331  0.46343303  0.86566333    -0.52090
C274        C  0.21548942  0.48353102  0.83484645     0.73360
O275        O  0.31525141  0.07950276  0.90187723    -0.71510
O276        O  0.32891149  0.08774643  0.97387292    -0.50190
C277        C  0.33362551  0.09360415  0.93085933     0.74750
O278        O  0.24487916  0.44910645  0.91981347    -0.66840
O279        O  0.19813319  0.42035794  0.93371812    -0.54040
C280        C  0.22042885  0.42381918  0.92280512     0.73130
Zr281      Zr  0.26798345  0.47554244  0.98300922     2.77540
O282        O  0.29349467  0.46271338  0.94857312    -0.97590
O283        O  0.25640525  0.43240363  0.03769273    -0.78410
Zr284      Zr  0.26595923  0.03641848  0.90178842     2.70070
O285        O  0.29434690  0.04562661  0.83858783    -0.79660
O286        O  0.25996825  0.07301239  0.86232157    -0.98740
Zr287      Zr  0.19582222  0.45951978  0.94833854     2.21500
Zr288      Zr  0.28917541  0.04630130  0.02388808     2.11130
O289        O  0.28950310  0.02684912  0.96042240    -2.47430
O290        O  0.24405547  0.48513734  0.92498551    -0.79450
O291        O  0.26877551  0.49455476  0.04703100    -0.71650
O292        O  0.21832835  0.01154772  0.92354919    -2.32600
O293        O  0.22037422  0.44987292  0.00810329    -2.28810
O294        O  0.26515371  0.05557309  0.96373276    -0.73410
H295        H  0.23976368  0.02735262  0.07261951     0.78590
H296        H  0.20868372  0.01476896  0.89896220     0.79680
H297        H  0.30836171  0.03622817  0.94979993     0.81900
H298        H  0.21080137  0.42868689  0.01696600     0.79510
H299        H  0.24408480  0.08820583  0.93873330     0.42550
H300        H  0.27582377  0.09204141  0.87170565     0.41520
H301        H  0.29982227  0.03244650  0.84837611     0.41190
H302        H  0.30948157  0.98196680  0.93058910     0.39130
H303        H  0.27303674  0.44041903  0.05664160     0.42260
H304        H  0.20934394  0.41800686  0.12707391     0.37040
H305        H  0.19054224  0.47417382  0.13022246     0.43160
H306        H  0.18280808  0.01213297  0.06344931     0.39580
H307        H  0.30231012  0.45768314  0.97364643     0.44490
H308        H  0.24197587  0.44237726  0.12778822     0.43220
H309        H  0.18536963  0.03926417  0.03344384     0.43350
H310        H  0.26459702  0.07541369  0.83035771     0.43710
O311        O  0.25441424  0.06895073  0.54709174    -0.75160
O312        O  0.20715744  0.03450501  0.55827382    -0.54070
C313        C  0.23063669  0.06116813  0.55868851     0.78570
O314        O  0.23702088  0.01727403  0.33614864    -0.59760
O315        O  0.27709895  0.02157477  0.35262372    -0.52790
C316        C  0.25983927  0.02177541  0.32470313     0.70580
O317        O  0.17337893  0.50837618  0.42757603    -0.74320
O318        O  0.16595814  0.49826576  0.50426439    -0.54880
C319        C  0.16120356  0.50518079  0.46386393     0.76590
O320        O  0.30575021  0.08398360  0.43219521    -0.59460
O321        O  0.32126942  0.05732727  0.44102660    -0.52580
C322        C  0.32519301  0.08184976  0.44221506     0.73180
Zr323      Zr  0.26754210  0.05863844  0.48575065     2.54710
O324        O  0.25787860  0.09105488  0.44052863    -0.80030
O325        O  0.30724112  0.10154154  0.51684127    -0.93450
Zr326      Zr  0.21100196  0.50703923  0.40570575     2.64680
O327        O  0.21569729  0.04906763  0.35858105    -0.98400
O328        O  0.17260797  0.47144362  0.36252301    -0.80460
O329        O  0.21950401  0.02760899  0.47215917    -0.83820
O330        O  0.25934002  0.03841259  0.41925595    -2.18530
O331        O  0.30258989  0.49466109  0.54144795    -0.67210
O332        O  0.31104799  0.50637580  0.46499988    -0.51770
C333        C  0.31656647  0.50080380  0.50548900     0.71560
O334        O  0.17369968  0.41944189  0.54467560    -0.60120
O335        O  0.15128025  0.43840561  0.54065965    -0.52090
C336        C  0.15110158  0.41633874  0.53744974     0.73360
O337        O  0.22658844  0.42470354  0.44182603    -0.71510
O338        O  0.26927928  0.46565373  0.41081414    -0.50190
C339        C  0.24927257  0.43705191  0.41889108     0.74750
O340        O  0.23769394  0.48140242  0.63201275    -0.66840
O341        O  0.19805818  0.47833215  0.61826115    -0.54040
C342        C  0.21597492  0.47836790  0.64482401     0.73130
Zr343      Zr  0.26084585  0.48917192  0.56131540     2.77540
O344        O  0.25226610  0.44414005  0.60494940    -0.97590
O345        O  0.29835790  0.02199629  0.60840043    -0.78410
Zr346      Zr  0.20361756  0.43834541  0.47943462     2.70070
O347        O  0.18868130  0.38795006  0.50544768    -0.79660
O348        O  0.16647025  0.41437763  0.42656045    -0.98740
Zr349      Zr  0.19742323  0.48887480  0.53650869     2.21500
Zr350      Zr  0.27520278  0.50855206  0.43347364     2.11130
O351        O  0.25172773  0.46817914  0.49548569    -2.47430
O352        O  0.21235876  0.45799048  0.54711559    -0.79450
O353        O  0.28367826  0.02938754  0.49986081    -0.71650
O354        O  0.18792856  0.46802796  0.46836156    -2.32600
O355        O  0.24635988  0.01955936  0.54961125    -2.28810
O356        O  0.22668312  0.47737148  0.41701145    -0.73410
H357        H  0.26818192  0.05328042  0.39232674     0.78590
H358        H  0.16823548  0.45620862  0.46207643     0.79680
H359        H  0.25851015  0.45652636  0.49928191     0.81900
H360        H  0.24997860  0.02700006  0.57741668     0.79510
H361        H  0.15537951  0.46146083  0.38146725     0.42550
H362        H  0.17617232  0.42434692  0.39651457     0.41520
H363        H  0.20042170  0.38975842  0.53153392     0.41190
H364        H  0.25414984  0.43477635  0.58273793     0.39130
H365        H  0.30575952  0.04236708  0.59300688     0.42260
H366        H  0.30662725  0.09448982  0.54951332     0.37040
H367        H  0.23818400  0.08202928  0.44849855     0.43160
H368        H  0.23613038  0.06429329  0.35142243     0.39580
H369        H  0.26900979  0.45152320  0.62348453     0.44490
H370        H  0.30304868  0.11584870  0.51448480     0.43220
H371        H  0.20740605  0.04203360  0.32985106     0.43350
H372        H  0.16100136  0.39403855  0.43002948     0.43710
O373        O  0.25012310  0.18594369  0.08776153    -0.75160
O374        O  0.25998950  0.18574852  0.01630841    -0.54070
C375        C  0.25725206  0.17692557  0.05929881     0.78570
O376        O  0.16820668  0.23994479  0.98784399    -0.59760
O377        O  0.19451848  0.27894854  0.02579186    -0.52790
C378        C  0.17239650  0.26101135  0.00424466     0.70580
O379        O  0.18683630  0.18687212  0.94175099    -0.74320
O380        O  0.20824147  0.16887576  0.97374088    -0.54880
C381        C  0.18504483  0.16487011  0.96295609     0.76590
O382        O  0.23645023  0.24498176  0.14543677    -0.59460
O383        O  0.23760697  0.28538894  0.11593333    -0.52580
C384        C  0.23617241  0.26676797  0.14915763     0.73180
Zr385      Zr  0.24113962  0.22345194  0.08729666     2.54710
O386        O  0.19983801  0.17878946  0.13016177    -0.80030
O387        O  0.27275532  0.22966038  0.14785332    -0.93450
Zr388      Zr  0.19163596  0.21868615  0.98853377     2.64680
O389        O  0.15548278  0.17874448  0.04469743    -0.98400
O390        O  0.15527797  0.21013756  0.93615162    -0.80460
O391        O  0.21861072  0.20296114  0.02202592    -0.83820
O392        O  0.21227252  0.23772040  0.05611765    -2.18530
O393        O  0.30322466  0.32011130  0.06136696    -0.67210
O394        O  0.28421080  0.34203671  0.03921213    -0.51770
C395        C  0.30651085  0.34408441  0.04559296     0.71560
O396        O  0.26143655  0.26826948  0.85584442    -0.60120
O397        O  0.25775658  0.22605045  0.88505771    -0.52090
C398        C  0.26032482  0.24556066  0.85187218     0.73360
O399        O  0.24150492  0.32311496  0.91747170    -0.71510
O400        O  0.23942397  0.32764343  0.99007351    -0.50190
C401        C  0.23717418  0.33357650  0.94785779     0.74750
O402        O  0.33037066  0.27483094  0.00763554    -0.66840
O403        O  0.30341290  0.23378119  0.97371804    -0.54040
C404        C  0.32634567  0.25319089  0.99303447     0.73130
Zr405      Zr  0.30533896  0.29448150  0.00937304     2.77540
O406        O  0.33638516  0.33147979  0.94582459    -0.97590
O407        O  0.34830752  0.31522097  0.04992623    -0.78410
Zr408      Zr  0.25554226  0.28975766  0.91325769     2.70070
O409        O  0.29719370  0.33611696  0.87395428    -0.79660
O410        O  0.22622081  0.28525281  0.84979802    -0.98740
Zr411      Zr  0.25480858  0.22058254  0.96748798     2.21500
Zr412      Zr  0.24190970  0.29090153  0.03445487     2.11130
O413        O  0.27801473  0.30991410  0.97782523    -2.47430
O414        O  0.28340720  0.27393543  0.94402986    -0.79450
O415        O  0.27059945  0.27639982  0.06590960    -0.71650
O416        O  0.22759285  0.23723876  0.93410439    -2.32600
O417        O  0.27654280  0.24231981  0.03274699    -2.28810
O418        O  0.22044720  0.27076739  0.96849416    -0.73410
H419        H  0.19791191  0.23133230  0.07790833     0.78590
H420        H  0.22011619  0.23101249  0.90554811     0.79680
H421        H  0.28925727  0.33116676  0.96799884     0.81900
H422        H  0.28757605  0.23643593  0.04742605     0.79510
H423        H  0.16529400  0.22006571  0.90631051     0.42550
H424        H  0.20853177  0.27884614  0.86358706     0.41520
H425        H  0.30689608  0.32993746  0.86065514     0.41190
H426        H  0.33329938  0.34667893  0.94071343     0.39130
H427        H  0.34205744  0.31026382  0.08181268     0.42260
H428        H  0.28918369  0.23384046  0.13304407     0.37040
H429        H  0.19572275  0.16213804  0.11685469     0.43160
H430        H  0.16525738  0.17311853  0.06652457     0.39580
H431        H  0.35565396  0.34140869  0.95683317     0.44490
H432        H  0.26318025  0.20943661  0.16600940     0.43220
H433        H  0.15065557  0.18845419  0.06127923     0.43350
H434        H  0.23532991  0.30603960  0.83434876     0.43710
O435        O  0.17687429  0.17673617  0.43713047    -0.75160
O436        O  0.17324418  0.21392944  0.40962143    -0.54070
C437        C  0.16601505  0.18729039  0.41147212     0.78570
O438        O  0.22852340  0.23470575  0.64697979    -0.59760
O439        O  0.26646810  0.23539702  0.63992798    -0.52790
C440        C  0.24891599  0.23445124  0.66336684     0.70580
O441        O  0.17299818  0.24413354  0.54939475    -0.74320
O442        O  0.17268117  0.25324130  0.47268643    -0.54880
C443        C  0.16365640  0.24958592  0.51233916     0.76590
O444        O  0.22005262  0.16165176  0.54402995    -0.59460
O445        O  0.26192149  0.19235578  0.57672298    -0.52580
C446        C  0.24099049  0.16661826  0.56683086     0.73180
Zr447      Zr  0.20916311  0.19144208  0.49632829     2.54710
O448        O  0.16367184  0.15165667  0.53462258    -0.80030
O449        O  0.21211842  0.15922009  0.45964941    -0.93450
Zr450      Zr  0.20818051  0.23724499  0.57363725     2.64680
O451        O  0.16677440  0.18839832  0.60759246    -0.98400
O452        O  0.20365548  0.26241084  0.62431000    -0.80460
O453        O  0.19213084  0.21792820  0.50527156    -0.83820
O454        O  0.22386887  0.20942935  0.56515192    -2.18530
O455        O  0.30895225  0.25450023  0.45004348    -0.67210
O456        O  0.31194499  0.24656109  0.52638625    -0.51770
C457        C  0.31918019  0.24925033  0.48563331     0.71560
O458        O  0.26562146  0.33945241  0.45971871    -0.60120
O459        O  0.22682750  0.31069687  0.41975624    -0.52090
C460        C  0.24755193  0.33628595  0.43082157     0.73360
O461        O  0.29466184  0.31192313  0.58451831    -0.71510
O462        O  0.31227206  0.28648444  0.59164065    -0.50190
C463        C  0.31298144  0.30821138  0.59946013     0.74750
O464        O  0.26027182  0.27282532  0.35514167    -0.66840
O465        O  0.22014864  0.26806378  0.36166695    -0.54040
C466        C  0.23957291  0.27218726  0.33825086     0.73130
Zr467      Zr  0.27728531  0.26589218  0.42914719     2.77540
O468        O  0.31979987  0.31553862  0.40095407    -0.97590
O469        O  0.28346136  0.24495358  0.37289674    -0.78410
Zr470      Zr  0.27675131  0.31041237  0.50950365     2.70070
O471        O  0.32568590  0.34982501  0.48450503    -0.79660
O472        O  0.27818151  0.34758865  0.53971274    -0.98740
Zr473      Zr  0.21176220  0.25867277  0.44290819     2.21500
Zr474      Zr  0.27403384  0.24288248  0.55889075     2.11130
O475        O  0.29414691  0.28467907  0.49779306    -2.47430
O476        O  0.26184598  0.29325477  0.43954933    -0.79450
O477        O  0.25865705  0.22471649  0.48956803    -0.71650
O478        O  0.22705498  0.27798768  0.51225267    -2.32600
O479        O  0.22803168  0.23124006  0.43396341    -2.28810
O480        O  0.25746544  0.26982751  0.56924650    -0.73410
H481        H  0.21718848  0.19341831  0.59052833     0.78590
H482        H  0.22093639  0.28968269  0.51525400     0.79680
H483        H  0.31445185  0.29733509  0.49779405     0.81900
H484        H  0.22223658  0.22344809  0.40616524     0.79510
H485        H  0.22046621  0.28354454  0.61682039     0.42550
H486        H  0.26214320  0.33577472  0.56195758     0.41520
H487        H  0.32520914  0.35352335  0.45127781     0.41190
H488        H  0.33516503  0.31683982  0.41808383     0.39130
H489        H  0.26738605  0.22341176  0.37899606     0.42260
H490        H  0.21906399  0.17014023  0.42851099     0.37040
H491        H  0.15083805  0.15620626  0.52163991     0.43160
H492        H  0.17424749  0.18025648  0.63024294     0.39580
H493        H  0.32292768  0.31456963  0.36997529     0.44490
H494        H  0.19238781  0.14171945  0.45684044     0.43220
H495        H  0.15721781  0.19283205  0.62560747     0.43350
H496        H  0.29503824  0.35705572  0.55808925     0.43710
C497        C  0.25318951  0.23469009  0.71257894    -0.00020
C498        C  0.27815382  0.25954969  0.72685481    -0.11900
C499        C  0.28144915  0.26295890  0.77237245     0.02210
C500        C  0.25991936  0.24075927  0.80497851    -0.00110
C501        C  0.23562413  0.21511259  0.79103391    -0.11840
C502        C  0.23195123  0.21215260  0.74530128     0.02100
H503        H  0.29458969  0.27708009  0.70204945     0.15080
H504        H  0.21880364  0.19804033  0.81562414     0.15080
C505        C  0.20606834  0.18595636  0.73263549     0.36730
C506        C  0.30692387  0.28966475  0.78476606     0.36640
N507        N  0.18531728  0.16492240  0.72253703    -0.43610
N508        N  0.32735485  0.31107855  0.79468441    -0.43610
C509        C  0.23512556  0.27099172  0.19563282    -0.00020
C510        C  0.25979794  0.29428500  0.21297746    -0.11900
C511        C  0.26123407  0.29610289  0.25893663     0.02210
C512        C  0.23748659  0.27460555  0.28841905    -0.00110
C513        C  0.21223279  0.25249002  0.27033892    -0.11840
C514        C  0.21100617  0.25035459  0.22450073     0.02100
H515        H  0.27841069  0.31029599  0.19097551     0.15080
H516        H  0.19387146  0.23578429  0.29254298     0.15080
C517        C  0.18500043  0.22639674  0.20792353     0.36730
C518        C  0.28743753  0.32003347  0.27517008     0.36640
N519        N  0.16417008  0.20725549  0.19448611    -0.43610
N520        N  0.30843065  0.33926054  0.28812273    -0.43610
C521        C  0.25189558  0.41531998  0.40459463    -0.00020
C522        C  0.27660984  0.41818785  0.41268233    -0.11900
C523        C  0.27646925  0.39340032  0.41584670     0.02210
C524        C  0.25087796  0.36453733  0.41238391    -0.00110
C525        C  0.22736720  0.36295126  0.39781572    -0.11840
C526        C  0.22771904  0.38790734  0.39351995     0.02100
H527        H  0.29556670  0.43917191  0.41999336     0.15080
H528        H  0.20809322  0.34179725  0.39251719     0.15080
C529        C  0.20241376  0.38434639  0.37956393     0.36730
C530        C  0.30295827  0.39840188  0.42382909     0.36640
N531        N  0.18210640  0.38132718  0.36804102    -0.43610
N532        N  0.32436593  0.40278784  0.42988386    -0.43610
C533        C  0.23260491  0.08720247  0.56664319    -0.00020
C534        C  0.25030927  0.11358573  0.53539891    -0.11900
C535        C  0.25483772  0.13997146  0.53784786     0.02210
C536        C  0.24244688  0.14148975  0.57342246    -0.00110
C537        C  0.22478451  0.11534957  0.60559980    -0.11840
C538        C  0.21998391  0.08826815  0.60263690     0.02100
H539        H  0.25999672  0.11340627  0.50708845     0.15080
H540        H  0.21395825  0.11578745  0.63188778     0.15080
C541        C  0.20251307  0.06229374  0.63661352     0.36730
C542        C  0.26909952  0.16382527  0.49950756     0.36640
N543        N  0.18863204  0.04146826  0.66404509    -0.43610
N544        N  0.27966562  0.18211486  0.46775974    -0.43610
C545        C  0.21148219  0.47999972  0.78628082    -0.00020
C546        C  0.22582258  0.00632034  0.75393864    -0.11900
C547        C  0.22718930  0.00577939  0.70831944     0.02210
C548        C  0.21334186  0.47841910  0.69317289    -0.00110
C549        C  0.19800798  0.45178317  0.72481066    -0.11840
C550        C  0.19709086  0.45235906  0.77116551     0.02100
H551        H  0.23697545  0.02782675  0.76442661     0.15080
H552        H  0.18740813  0.43062152  0.71350646     0.15080
C553        C  0.18267708  0.42454718  0.80250500     0.36730
C554        C  0.24417010  0.03393332  0.67784406     0.36640
N555        N  0.17115475  0.40222481  0.82762051    -0.43610
N556        N  0.25811451  0.05663977  0.65392793    -0.43610
C557        C  0.27521460  0.02787293  0.18426829    -0.00020
C558        C  0.26754241  0.04458075  0.19613327    -0.11900
C559        C  0.26292496  0.04358903  0.24151959     0.02210
C560        C  0.26630722  0.02584185  0.27608028    -0.00110
C561        C  0.27558438  0.51061196  0.26385231    -0.11840
C562        C  0.27946677  0.01095923  0.21872917     0.02100
H563        H  0.26360769  0.05712520  0.16976337     0.15080
H564        H  0.27832259  0.49688502  0.28985281     0.15080
C565        C  0.28673049  0.49296371  0.20810721     0.36730
C566        C  0.25484073  0.06104394  0.25144518     0.36640
N567        N  0.29234069  0.47830463  0.19970434    -0.43610
N568        N  0.24852740  0.07533416  0.25871017    -0.43610
C569        C  0.22857274  0.35364586  0.93578732    -0.00020
C570        C  0.23895719  0.37498749  0.89590456    -0.11900
C571        C  0.23513904  0.39733981  0.88877160     0.02210
C572        C  0.21906914  0.39740677  0.92031214    -0.00110
C573        C  0.20653498  0.37460134  0.95746387    -0.11840
C574        C  0.21208015  0.35399395  0.96674606     0.02100
H575        H  0.25177269  0.37561303  0.87192544     0.15080
H576        H  0.19478633  0.37490083  0.98239595     0.15080
C577        C  0.20227172  0.33580186  0.01095868     0.36730
C578        C  0.24852511  0.42048412  0.84960137     0.36640
N579        N  0.19440787  0.32273967  0.04730387    -0.43610
N580        N  0.25925637  0.43910294  0.81823485    -0.43610
C581        C  0.26199232  0.15405467  0.07540665    -0.00020
C582        C  0.23887878  0.12410697  0.08729085    -0.11900
C583        C  0.24119123  0.10135586  0.08630106     0.02210
C584        C  0.26608940  0.10819837  0.06823623    -0.00110
C585        C  0.29018566  0.13800696  0.06294114    -0.11840
C586        C  0.28839525  0.16046123  0.06945014     0.02100
H587        H  0.21885362  0.11844531  0.09624171     0.15080
H588        H  0.31029583  0.14376737  0.05424562     0.15080
C589        C  0.31310673  0.18654045  0.08353950     0.36730
C590        C  0.21792038  0.07122002  0.10518757     0.36640
N591        N  0.33251104  0.20524996  0.09996429    -0.43610
N592        N  0.19942024  0.04740731  0.12195593    -0.43610
C593        C  0.34860120  0.10543663  0.46611889    -0.00020
C594        C  0.35425476  0.09668506  0.50939262    -0.11900
C595        C  0.36924164  0.11697874  0.53949471     0.02210
C596        C  0.37921089  0.14698811  0.52661361    -0.00110
C597        C  0.37312404  0.15552200  0.48359483    -0.11840
C598        C  0.35827856  0.13532030  0.45347394     0.02100
H599        H  0.34562577  0.07350936  0.52068844     0.15080
H600        H  0.38117720  0.17845145  0.47241759     0.15080
C601        C  0.35271491  0.14568964  0.40983720     0.36730
C602        C  0.37416822  0.10640805  0.58351509     0.36640
N603        N  0.34821574  0.15401198  0.37495052    -0.43610
N604        N  0.37814060  0.09789781  0.61874351    -0.43610
C605        C  0.09762271  0.34982773  0.45188208    -0.00020
C606        C  0.10997425  0.34398533  0.48944759    -0.11900
C607        C  0.12491707  0.36404426  0.52004806     0.02210
C608        C  0.12909010  0.39156161  0.51284967    -0.00110
C609        C  0.11709824  0.39764362  0.47499410    -0.11840
C610        C  0.10228149  0.37764417  0.44421688     0.02100
H611        H  0.10668163  0.32290573  0.49651009     0.15080
H612        H  0.12043656  0.41874249  0.46799736     0.15080
C613        C  0.09309495  0.38688262  0.40389095     0.36730
C614        C  0.13472734  0.35516618  0.55991700     0.36640
N615        N  0.08599647  0.39452440  0.37144036    -0.43610
N616        N  0.14248873  0.34795034  0.59189186    -0.43610
C617        C  0.37760143  0.23281860  0.46816057    -0.00020
C618        C  0.37607503  0.25178626  0.43417346    -0.11900
C619        C  0.35706256  0.25748180  0.43868814     0.02210
C620        C  0.33958326  0.24425222  0.47840369    -0.00110
C621        C  0.33952633  0.22330892  0.51022832    -0.11840
C622        C  0.35769987  0.21683861  0.50489434     0.02100
H623        H  0.39124386  0.26403077  0.40591293     0.15080
H624        H  0.32495584  0.21163278  0.53927660     0.15080
C625        C  0.35564558  0.19422195  0.53870574     0.36730
C626        C  0.35721635  0.27812043  0.40301625     0.36640
N627        N  0.35268807  0.17571415  0.56667763    -0.43610
N628        N  0.35738872  0.29444356  0.37391892    -0.43610
C629        C  0.14152205  0.25287753  0.51609944    -0.00020
C630        C  0.12526499  0.24044329  0.55666736    -0.11900
C631        C  0.10350700  0.24229569  0.56113867     0.02210
C632        C  0.09853686  0.25770025  0.52505322    -0.00110
C633        C  0.11649365  0.27244974  0.48645826    -0.11840
C634        C  0.13692004  0.26917600  0.48076796     0.02100
H635        H  0.12868258  0.22808813  0.58429702     0.15080
H636        H  0.11312249  0.28487309  0.45878816     0.15080
C637        C  0.15111411  0.28117358  0.43697867     0.36730
C638        C  0.08570872  0.22669420  0.60162307     0.36640
N639        N  0.16153227  0.28991884  0.40125555    -0.43610
N640        N  0.07152910  0.21414592  0.63417822    -0.43610
C641        C  0.49212763  0.25861741  0.78385633    -0.00020
C642        C  0.48336316  0.23185150  0.77172815    -0.11900
C643        C  0.47481860  0.22604319  0.72831263     0.02210
C644        C  0.47497075  0.24722879  0.69605702    -0.00110
C645        C  0.48178904  0.27299145  0.70865427    -0.11840
C646        C  0.49034578  0.27889303  0.75223881     0.02100
H647        H  0.48341596  0.21546873  0.79608684     0.15080
H648        H  0.48248016  0.28957111  0.68350407     0.15080
C649        C  0.49886171  0.30677580  0.76236531     0.36730
C650        C  0.46701276  0.19869686  0.71691831     0.36640
N651        N  0.50564413  0.32912829  0.77037710    -0.43610
N652        N  0.46073615  0.17681140  0.70772638    -0.43610
C653        C  0.00293434  0.24663700  0.29145028    -0.00020
C654        C  0.49127394  0.21900157  0.27918582    -0.11900
C655        C  0.48688608  0.21543605  0.23376438     0.02210
C656        C  0.99405068  0.23983871  0.19987216    -0.00110
C657        C  0.00653865  0.26765910  0.21247378    -0.11840
C658        C  0.01098663  0.27118542  0.25765373     0.02100
H659        H  0.48440315  0.19986729  0.30523367     0.15080
H660        H  0.01289676  0.28683031  0.18686236     0.15080
C661        C  0.02363190  0.30017283  0.26872615     0.36730
C662        C  0.47342382  0.18619473  0.22311874     0.36640
N663        N  0.03386771  0.32340061  0.27766827    -0.43610
N664        N  0.46253545  0.16272121  0.21460057    -0.43610
C665        C  0.41994771  0.16219578  0.88798302    -0.00020
C666        C  0.39924622  0.16536980  0.87115470    -0.11900
C667        C  0.37075574  0.14284360  0.88346179     0.02210
C668        C  0.36278716  0.11682539  0.91332090    -0.00110
C669        C  0.38281058  0.11189314  0.92475862    -0.11840
C670        C  0.41117494  0.13404973  0.91099102     0.02100
H671        H  0.40560123  0.18665620  0.85216525     0.15080
H672        H  0.37631076  0.09088238  0.94497906     0.15080
C673        C  0.43080024  0.12758159  0.92112218     0.36730
C674        C  0.35055725  0.14809783  0.86862767     0.36640
N675        N  0.44650099  0.12221134  0.92756484    -0.43610
N676        N  0.33436867  0.15231891  0.85680334    -0.43610
C677        C  0.07298946  0.34765746  0.11345610    -0.00020
C678        C  0.09555301  0.34642550  0.12333880    -0.11900
C679        C  0.12114034  0.36763041  0.09844161     0.02210
C680        C  0.12533454  0.39247808  0.06956205    -0.00110
C681        C  0.10599733  0.39812234  0.07357520    -0.11840
C682        C  0.08046379  0.37615747  0.09851549     0.02100
H683        H  0.09108602  0.32557766  0.14044787     0.15080
H684        H  0.11120972  0.41966319  0.05888179     0.15080
C685        C  0.06242001  0.38272376  0.11020269     0.36730
C686        C  0.14201775  0.36266618  0.10105830     0.36640
N687        N  0.04798693  0.38790134  0.12039113    -0.43610
N688        N  0.15872074  0.35867908  0.10286706    -0.43610
C689        C  0.39568898  0.24782596  0.01597926    -0.00020
C690        C  0.38954159  0.25868685  0.04651384    -0.11900
C691        C  0.36738298  0.26077575  0.03949952     0.02210
C692        C  0.35005684  0.25112152  0.00138734    -0.00110
C693        C  0.35713193  0.24164819  0.96980735    -0.11840
C694        C  0.38012070  0.24098891  0.97575583     0.02100
H695        H  0.40148136  0.26468378  0.07675603     0.15080
H696        H  0.34540213  0.23594440  0.93932392     0.15080
C697        C  0.38856080  0.23576264  0.93774800     0.36730
C698        C  0.36120795  0.26953241  0.07549694     0.36640
N699        N  0.39539379  0.23215306  0.90669822    -0.43610
N700        N  0.35650642  0.27555122  0.10600796    -0.43610
C701        C  0.10175832  0.25866705  0.96006134    -0.00020
C702        C  0.09924398  0.23921039  0.99881238    -0.11900
C703        C  0.12297278  0.24222150  0.01673259     0.02210
C704        C  0.14966458  0.26395664  0.99486091    -0.00110
C705        C  0.15179474  0.28202136  0.95449663    -0.11840
C706        C  0.12839005  0.28023885  0.93786508     0.02100
H707        H  0.07916709  0.22332660  0.01741191     0.15080
H708        H  0.17168329  0.29716640  0.93538208     0.15080
C709        C  0.13222433  0.30084308  0.89798650     0.36730
C710        C  0.11963573  0.22283496  0.05785522     0.36640
N711        N  0.13535738  0.31730332  0.86594537    -0.43610
N712        N  0.11691314  0.20706315  0.09054960    -0.43610
C713        C  0.38685921  0.38959274  0.62572156    -0.00020
C714        C  0.38701333  0.36475930  0.63272350    -0.11900
C715        C  0.36220793  0.33611052  0.63022463     0.02210
C716        C  0.33665338  0.33202254  0.62336093    -0.00110
C717        C  0.33600958  0.35528663  0.63002176    -0.11840
C718        C  0.36102938  0.38411087  0.63111959     0.02100
H719        H  0.40696003  0.36845369  0.63225467     0.15080
H720        H  0.31623629  0.35196605  0.62936063     0.15080
C721        C  0.35967658  0.40802705  0.63312169     0.36730
C722        C  0.36434993  0.31256980  0.62955243     0.36640
N723        N  0.35864850  0.42719881  0.63518406    -0.43610
N724        N  0.36618923  0.29378735  0.62897124    -0.43610
C725        C  0.08811710  0.10916257  0.38284587    -0.00020
C726        C  0.11276774  0.11256731  0.37617231    -0.11900
C727        C  0.13939077  0.14036457  0.37672362     0.02210
C728        C  0.14175650  0.16493625  0.38679630    -0.00110
C729        C  0.11763766  0.16296909  0.38625179    -0.11840
C730        C  0.09113024  0.13588653  0.38375342     0.02100
H731        H  0.11139288  0.09332510  0.37281812     0.15080
H732        H  0.11918483  0.18187557  0.39240904     0.15080
C733        C  0.06795725  0.13699441  0.38582213     0.36730
C734        C  0.16407838  0.14301865  0.36782964     0.36640
N735        N  0.05047355  0.13955118  0.38752191    -0.43610
N736        N  0.18372593  0.14512039  0.35970946    -0.43610
C737        C  0.33977945  0.49945750  0.50932434    -0.00020
C738        C  0.33341254  0.47142190  0.52468005    -0.11900
C739        C  0.35263792  0.46664605  0.51696805     0.02210
C740        C  0.37849644  0.99032101  0.49475495    -0.00110
C741        C  0.38485354  0.01820548  0.47941319    -0.11840
C742        C  0.36574957  0.02306594  0.48671386     0.02100
H743        H  0.31275995  0.45284594  0.53970495     0.15080
H744        H  0.40482202  0.03620100  0.46188235     0.15080
C745        C  0.37316451  0.05222873  0.46949156     0.36730
C746        C  0.34472654  0.43695358  0.52821611     0.36640
N747        N  0.37987649  0.07584904  0.45507331    -0.43610
N748        N  0.33866484  0.41324558  0.53599391    -0.43610
C749        C  0.08954841  0.00068954  0.47553970    -0.00020
C750        C  0.11471404  0.02279212  0.49299514    -0.11900
C751        C  0.13944432  0.02707934  0.48457759     0.02210
C752        C  0.13882301  0.50807266  0.46032876    -0.00110
C753        C  0.11396744  0.48655554  0.44180346    -0.11840
C754        C  0.08943987  0.48305343  0.44834794     0.02100
H755        H  0.11530238  0.03763228  0.51132782     0.15080
H756        H  0.11350210  0.47172736  0.42359873     0.15080
C757        C  0.06485964  0.46105460  0.42655258     0.36730
C758        C  0.16545615  0.05251440  0.49810072     0.36640
N759        N  0.04621428  0.44339682  0.40747322    -0.43610
N760        N  0.18602782  0.07383853  0.50770761    -0.43610
C761        C  0.48451160  0.39833403  0.45621342    -0.00020
C762        C  0.50306294  0.40121761  0.49018527    -0.11900
C763        C  0.50012401  0.37617810  0.51514825     0.02210
C764        C  0.47856242  0.34703700  0.50612480    -0.00110
C765        C  0.45984469  0.34404964  0.47235507    -0.11840
C766        C  0.46252835  0.36914038  0.44782009     0.02100
H767        H  0.01921789  0.42301322  0.49891367     0.15080
H768        H  0.44394138  0.32223352  0.46339076     0.15080
C769        C  0.44287459  0.36442471  0.41308654     0.36730
C770        C  0.51951251  0.38097466  0.55045546     0.36640
N771        N  0.42716757  0.36064159  0.38514037    -0.43610
N772        N  0.03494871  0.38475032  0.57888867    -0.43610
C773        C  0.49377793  0.14767988  0.48208706    -0.00020
C774        C  0.51001508  0.14768031  0.51823609    -0.11900
C775        C  0.50436131  0.12082932  0.54153561     0.02210
C776        C  0.48189002  0.09297442  0.52932978    -0.00110
C777        C  0.46504511  0.09296290  0.49447249    -0.11840
C778        C  0.47111129  0.11971725  0.47030974     0.02100
H779        H  0.52654609  0.16855994  0.52935941     0.15080
H780        H  0.44874728  0.07218470  0.48313028     0.15080
C781        C  0.45442595  0.11792036  0.43195930     0.36730
C782        C  0.52191766  0.12231328  0.57818402     0.36640
N783        N  0.44121312  0.11655678  0.40106098    -0.43610
N784        N  0.53591268  0.12347411  0.60769278    -0.43610
C785        C  0.48151563  0.48622649  0.69633508    -0.00020
C786        C  0.99693992  0.47799949  0.72224005    -0.11900
C787        C  0.99753376  0.47605672  0.76889438     0.02210
C788        C  0.48271505  0.48266172  0.79008398    -0.00110
C789        C  0.46623764  0.48943037  0.76519409    -0.11840
C790        C  0.46513189  0.49094480  0.71879449     0.02100
H791        H  0.00900862  0.47351867  0.70601139     0.15080
H792        H  0.45455143  0.49411535  0.78216693     0.15080
C793        C  0.44738939  0.49802504  0.69596676     0.36730
C794        C  0.01469564  0.46884869  0.79376676     0.36640
N795        N  0.43301283  0.50353012  0.67801059    -0.43610
N796        N  0.02842158  0.46306722  0.81374739    -0.43610
C797        C  0.48535863  0.00845462  0.18806781    -0.00020
C798        C  0.01063021  0.02615305  0.20956207    -0.11900
C799        C  0.01046619  0.02395158  0.25607458     0.02210
C800        C  0.98455176  0.00399846  0.28106235    -0.00110
C801        C  0.45918738  0.98760977  0.25893354    -0.11840
C802        C  0.45947275  0.98957555  0.21249718     0.02100
H803        H  0.03048568  0.04061792  0.19023379     0.15080
H804        H  0.43925795  0.97261632  0.27800552     0.15080
C805        C  0.43318103  0.47188333  0.19042068     0.36730
C806        C  0.03709618  0.04243607  0.27695396     0.36640
N807        N  0.41213338  0.45785102  0.17267709    -0.43610
N808        N  0.05850749  0.05723662  0.29341564    -0.43610
C809        C  0.33460413  0.36983694  0.02390178    -0.00020
C810        C  0.35719131  0.37053435  0.04078737    -0.11900
C811        C  0.38114223  0.38307425  0.01415957     0.02210
C812        C  0.38525149  0.39975950  0.97040520    -0.00110
C813        C  0.36388012  0.40251959  0.95576846    -0.11840
C814        C  0.33871891  0.38766684  0.98171414     0.02100
H815        H  0.35503896  0.35882008  0.07466332     0.15080
H816        H  0.36660499  0.41597331  0.92336471     0.15080
C817        C  0.31764591  0.39092920  0.96393148     0.36730
C818        C  0.40009568  0.37762375  0.03530349     0.36640
N819        N  0.30102673  0.39398034  0.94950183    -0.43610
N820        N  0.41320798  0.37175537  0.05720998    -0.43610
C821        C  0.10324805  0.10030103  0.03321104    -0.00020
C822        C  0.12379229  0.09532866  0.03964174    -0.11900
C823        C  0.15021936  0.11478294  0.01606168     0.02210
C824        C  0.15633004  0.13931823  0.98407094    -0.00110
C825        C  0.13495062  0.14283517  0.97642282    -0.11840
C826        C  0.11025675  0.12569756  0.00325699     0.02100
H827        H  0.11888571  0.07558264  0.06208826     0.15080
H828        H  0.13805689  0.16041009  0.95097625     0.15080
C829        C  0.09398294  0.13639269  0.00266593     0.36730
C830        C  0.16946021  0.10759945  0.02234521     0.36640
N831        N  0.08156347  0.14545471  0.00467200    -0.43610
N832        N  0.18460075  0.10142456  0.02648802    -0.43610
C833        C  0.36599971  0.03650144  0.02491037    -0.00020
C834        C  0.38036390  0.04230221  0.98500210    -0.11900
C835        C  0.40474423  0.04372379  0.98503251     0.02210
C836        C  0.41605419  0.03868496  0.02570632    -0.00110
C837        C  0.40252535  0.53406362  0.06587306    -0.11840
C838        C  0.37807486  0.03323852  0.06588842     0.02100
H839        H  0.37169877  0.04448908  0.95300031     0.15080
H840        H  0.40975380  0.52918423  0.09769631     0.15080
C841        C  0.36478474  0.52701058  0.10817459     0.36730
C842        C  0.41694373  0.04866611  0.94194836     0.36640
N843        N  0.35405530  0.52205058  0.14226815    -0.43610
N844        N  0.42675194  0.05261144  0.90747381    -0.43610
C845        C  0.12427046  0.47768673  0.92596967    -0.00020
C846        C  0.09684507  0.45011287  0.92602213    -0.11900
C847        C  0.07187905  0.44844047  0.92367255     0.02210
C848        C  0.07368008  0.47408037  0.92459356    -0.00110
C849        C  0.10106297  0.00156088  0.91750354    -0.11840
C850        C  0.12552877  0.00357860  0.91697428     0.02100
H851        H  0.09475075  0.42983649  0.92868917     0.15080
H852        H  0.10354231  0.02214977  0.91380181     0.15080
C853        C  0.15180918  0.03322699  0.90644472     0.36730
C854        C  0.04513865  0.42110046  0.91684903     0.36640
N855        N  0.17251874  0.05718348  0.89733545    -0.43610
N856        N  0.02378139  0.39952807  0.90964416    -0.43610
C857        C  0.48959158  0.35182637  0.99510878    -0.00020
C858        C  0.46166229  0.34078626  0.99192894    -0.11900
C859        C  0.45262727  0.35439171  0.00911049     0.02210
C860        C  0.97201520  0.37924504  0.03101519    -0.00110
C861        C  0.99961649  0.38873551  0.03671311    -0.11840
C862        C  0.00869088  0.37582810  0.01710660     0.02100
H863        H  0.44682498  0.32125685  0.97631789     0.15080
H864        H  0.01502715  0.40874242  0.05090214     0.15080
C865        C  0.03816477  0.38904200  0.01563773     0.36730
C866        C  0.42444490  0.34428307  0.99897220     0.36640
N867        N  0.06177642  0.39984472  0.01208220    -0.43610
N868        N  0.40178883  0.33532208  0.98932186    -0.43610
C869        C  0.51553723  0.11896928  0.94717273    -0.00020
C870        C  0.49191987  0.11004430  0.97131406    -0.11900
C871        C  0.49297010  0.12966730  0.99328464     0.02210
C872        C  0.51697797  0.15956464  0.98691605    -0.00110
C873        C  0.04014441  0.16914177  0.96004394    -0.11840
C874        C  0.03963894  0.14889955  0.94031296     0.02100
H875        H  0.47351264  0.08688246  0.97643747     0.15080
H876        H  0.05795920  0.19259637  0.95285009     0.15080
C877        C  0.06375038  0.15886204  0.91377862     0.36730
C878        C  0.46873814  0.11883093  0.02049403     0.36640
N879        N  0.08311834  0.16681057  0.89267442    -0.43610
N880        N  0.44915195  0.10982576  0.04204900    -0.43610
O881        O  0.06753701  0.54955234  0.05558202    -0.75160
O882        O  0.05293112  0.57750246  0.04116388    -0.54070
C883        C  0.07299634  0.57487069  0.04682264     0.78570
O884        O  0.99351437  0.51067115  0.84598756    -0.59760
O885        O  0.98152832  0.96399056  0.86637876    -0.52790
C886        C  0.98622762  0.98593410  0.83730167     0.70580
O887        O  0.01146796  0.58173317  0.91709801    -0.74320
O888        O  0.52238987  0.58751850  0.99047933    -0.54880
C889        C  0.51815799  0.59548381  0.95048070     0.76590
O890        O  0.06070262  0.49583792  0.96307297    -0.59460
O891        O  0.02398500  0.95813693  0.93010447    -0.52580
C892        C  0.05068145  0.97522074  0.93976972     0.73180
Zr893      Zr  0.04696791  0.51927209  0.99875767     2.54710
O894        O  0.08872188  0.56274026  0.95493174    -0.80030
O895        O  0.07496183  0.50694941  0.04393141    -0.93450
Zr896      Zr  0.00573758  0.53717192  0.90829015     2.64680
O897        O  0.05237543  0.57269008  0.87170673    -0.98400
O898        O  0.48819779  0.55372507  0.84493177    -0.80460
O899        O  0.03146837  0.54873016  0.97451905    -0.83820
O900        O  0.02263349  0.50898397  0.93065286    -2.18530
O901        O  0.47520396  0.91697690  0.05896058    -0.67210
O902        O  0.96703591  0.91124401  0.98512376    -0.51770
C903        C  0.97006636  0.90328748  0.02582042     0.71560
O904        O  0.42383186  0.00716542  0.00386920    -0.60120
O905        O  0.46102623  0.54361718  0.03849461    -0.52090
C906        C  0.43525152  0.52947420  0.02377115     0.73360
O907        O  0.42138189  0.94619545  0.92803624    -0.71510
O908        O  0.43113307  0.91496765  0.94591785    -0.50190
C909        C  0.41293843  0.91996967  0.94387423     0.74750
O910        O  0.47894034  0.98202454  0.13317417    -0.66840
O911        O  0.49698511  0.53108278  0.11252439    -0.54040
C912        C  0.48702493  0.50712744  0.14128315     0.73130
Zr913      Zr  0.47788326  0.95960737  0.07189221     2.77540
O914        O  0.43325894  0.91850375  0.11125851    -0.97590
O915        O  0.00418748  0.95312490  0.13186983    -0.78410
Zr916      Zr  0.43575744  0.97761674  0.98271783     2.70070
O917        O  0.39861904  0.93890321  0.03832814    -0.79660
O918        O  0.39948700  0.97791069  0.94088299    -0.98740
Zr919      Zr  0.50088528  0.53918916  0.03237282     2.21500
Zr920      Zr  0.98264672  0.95804424  0.94654428     2.11130
O921        O  0.45345506  0.95041609  0.00625033    -2.47430
O922        O  0.46103457  0.98816641  0.04957933    -0.79450
O923        O  0.00814502  0.96874976  0.01403921    -0.71650
O924        O  0.47511190  0.52788621  0.96523681    -2.32600
O925        O  0.01684876  0.50988793  0.05743734    -2.28810
O926        O  0.46528257  0.98658230  0.92329792    -0.73410
H927        H  0.03435908  0.51235926  0.90656739     0.78590
H928        H  0.46854210  0.53961185  0.95610397     0.79680
H929        H  0.43796881  0.92998098  0.01569165     0.81900
H930        H  0.02507723  0.51343413  0.08651506     0.79510
H931        H  0.46794884  0.54224946  0.85272873     0.42550
H932        H  0.39909522  0.97273316  0.91129939     0.41520
H933        H  0.39949385  0.94969889  0.06111341     0.41190
H934        H  0.43854837  0.91366452  0.14148444     0.39130
H935        H  0.02103766  0.95867155  0.11631703     0.42260
H936        H  0.06998041  0.50466449  0.07562748     0.37040
H937        H  0.08460394  0.57706816  0.94509656     0.43160
H938        H  0.05118992  0.56440909  0.84497858     0.39580
H939        H  0.42441513  0.92765807  0.11655336     0.44490
H940        H  0.09459815  0.52546251  0.03895150     0.43220
H941        H  0.05363474  0.59063737  0.85921476     0.43350
H942        H  0.38145842  0.96060979  0.95660912     0.43710
O943        O  0.46047281  0.91907948  0.44209801    -0.75160
O944        O  0.00695956  0.95149157  0.42957615    -0.54070
C945        C  0.98407437  0.92432715  0.43915009     0.78570
O946        O  0.41124969  0.49300387  0.45344062    -0.59760
O947        O  0.40959873  0.48319877  0.53049714    -0.52790
C948        C  0.40087215  0.48807885  0.49253266     0.70580
O949        O  0.46280032  0.49655447  0.34830954    -0.74320
O950        O  0.00279685  0.50001606  0.35097227    -0.54880
C951        C  0.98325768  0.49978036  0.33009333     0.76590
O952        O  0.42007079  0.91087932  0.56812422    -0.59460
O953        O  0.41649973  0.94284514  0.59488481    -0.52580
C954        C  0.40970963  0.91668325  0.59548253     0.73180
Zr955      Zr  0.45045469  0.93315869  0.50271105     2.54710
O956        O  0.40412263  0.89473539  0.47800034    -0.80030
O957        O  0.45235804  0.89433022  0.54604758    -0.93450
Zr958      Zr  0.44573907  0.49088350  0.42261715     2.64680
O959        O  0.40339884  0.94728698  0.39737794    -0.98400
O960        O  0.44033314  0.52404516  0.36867928    -0.80460
O961        O  0.46412831  0.96415227  0.43109436    -0.83820
O962        O  0.43177174  0.95939745  0.49378504    -2.18530
O963        O  0.50173146  0.98979044  0.62889398    -0.67210
O964        O  0.46586550  0.99318383  0.62486905    -0.51770
C965        C  0.48314244  0.98997748  0.64685773     0.71560
O966        O  0.04095483  0.57913251  0.40585447    -0.60120
O967        O  0.05712524  0.55345227  0.40145434    -0.52090
C968        C  0.06049729  0.57850802  0.39614095     0.73360
O969        O  0.50638035  0.57371212  0.53187047    -0.71510
O970        O  0.45985348  0.53947064  0.54662614    -0.50190
C971        C  0.48249121  0.56698986  0.53903672     0.74750
O972        O  0.05739875  0.49947244  0.51870755    -0.66840
O973        O  0.05407676  0.50117477  0.44239227    -0.54040
C974        C  0.06527212  0.50010043  0.47955954     0.73130
Zr975      Zr  0.02067014  0.49813013  0.55401924     2.77540
O976        O  0.06233562  0.54054507  0.58275211    -0.97590
O977        O  0.02620529  0.96396406  0.60453090    -0.78410
Zr978      Zr  0.01421469  0.55609922  0.47436420     2.70070
O979        O  0.06038206  0.59920913  0.49144328    -0.79660
O980        O  0.00148686  0.58618868  0.43110139    -0.98740
Zr981      Zr  0.01445368  0.49955349  0.42821553     2.21500
Zr982      Zr  0.45273791  0.49145609  0.54872534     2.11130
O983        O  0.50287517  0.52557825  0.54588126    -2.47430
O984        O  0.03428694  0.53077841  0.48399699    -0.79450
O985        O  0.47078707  0.96401690  0.55800826    -0.71650
O986        O  0.99513944  0.52566628  0.41816370    -2.32600
O987        O  0.00034316  0.96693934  0.49978783    -2.28810
O988        O  0.46473741  0.52239810  0.47746527    -0.73410
H989        H  0.41151592  0.94555280  0.49773232     0.78590
H990        H  0.99977973  0.53739426  0.38837498     0.79680
H991        H  0.50980918  0.53684669  0.57019689     0.81900
H992        H  0.00752252  0.95567816  0.50512163     0.79510
H993        H  0.45953915  0.54325111  0.36374937     0.42550
H994        H  0.48069707  0.57353818  0.43327542     0.41520
H995        H  0.07173629  0.59194587  0.49787963     0.41190
H996        H  0.05494641  0.54591341  0.60355847     0.39130
H997        H  0.50980255  0.94389422  0.59921462     0.42260
H998        H  0.47260792  0.90378569  0.54903988     0.37040
H999        H  0.40512600  0.90099438  0.44498083     0.43160
H1000       H  0.38840690  0.94004501  0.41968631     0.39580
H1001       H  0.07039496  0.53193260  0.60268183     0.44490
H1002       H  0.44543805  0.87958806  0.52601685     0.43220
H1003       H  0.39882310  0.95554308  0.36961013     0.43350
H1004       H  0.00822287  0.60223533  0.44835942     0.43710
O1005       O  0.08160754  0.77891381  0.98050257    -0.75160
O1006       O  0.05868652  0.74825821  0.92846110    -0.54070
C1007       C  0.07951934  0.76270635  0.95444829     0.78570
O1008       O  0.99559348  0.72286910  0.13479265    -0.59760
O1009       O  0.98274728  0.75325384  0.12791303    -0.52790
C1010       C  0.98989790  0.73786052  0.15128948     0.70580
O1011       O  0.50823438  0.68363765  0.03017881    -0.74320
O1012       O  0.51535802  0.69675706  0.95343793    -0.54880
C1013       C  0.51388745  0.68180123  0.99132977     0.76590
O1014       O  0.06429049  0.82283572  0.05539624    -0.59460
O1015       O  0.02564821  0.81088791  0.09006811    -0.52580
C1016       C  0.05244742  0.82549582  0.08508641     0.73180
Zr1017     Zr  0.05647054  0.79603379  0.99746328     2.54710
O1018       O  0.10083396  0.81591598  0.03436840    -0.80030
O1019       O  0.08615258  0.84269380  0.94489297    -0.93450
Zr1020     Zr  0.99717892  0.71248841  0.06013251     2.64680
O1021       O  0.03049248  0.70926839  0.10669995    -0.98400
O1022       O  0.45797359  0.66333440  0.09679210    -0.80460
O1023       O  0.03188766  0.74455713  0.00122392    -0.83820
O1024       O  0.02243591  0.76426418  0.05756463    -2.18530
O1025       O  0.49600897  0.82694056  0.95058637    -0.67210
O1026       O  0.99477091  0.81748267  0.02765532    -0.51770
C1027       C  0.49483269  0.83156963  0.98997308     0.71560
O1028       O  0.44877102  0.71095608  0.90303171    -0.60120
O1029       O  0.47058111  0.69181012  0.89932682    -0.52090
C1030       C  0.44816477  0.68983373  0.89450492     0.73360
O1031       O  0.41454275  0.72397560  0.00472705    -0.71510
O1032       O  0.44042848  0.76093122  0.04659859    -0.50190
C1033       C  0.41800168  0.74356842  0.02473889     0.74750
O1034       O  0.49561752  0.77792143  0.84854271    -0.66840
O1035       O  0.51185749  0.75100816  0.85099796    -0.54040
C1036       C  0.50100659  0.76334332  0.83042847     0.73130
Zr1037     Zr  0.50269943  0.79548814  0.91926640     2.77540
O1038       O  0.47202956  0.80333292  0.87235160    -0.97590
O1039       O  0.04315695  0.84247737  0.88005856    -0.78410
Zr1040     Zr  0.44249648  0.71168674  0.98023932     2.70070
O1041       O  0.39446400  0.68253549  0.95466354    -0.79660
O1042       O  0.41836874  0.66039641  0.01944279    -0.98740
Zr1043     Zr  0.51107602  0.73468436  0.93072199     2.21500
Zr1044     Zr  0.98796342  0.77250663  0.04832107     2.11130
O1045       O  0.46733837  0.76369100  0.97694616    -2.47430
O1046       O  0.47748407  0.74388829  0.92181088    -0.79450
O1047       O  0.02358285  0.80546530  0.98956552    -0.71650
O1048       O  0.47529427  0.70154935  0.99006532    -2.32600
O1049       O  0.03662632  0.78696700  0.92615155    -2.28810
O1050       O  0.46255123  0.72041108  0.05184990    -0.73410
H1051       H  0.03183919  0.76909128  0.08556577     0.78590
H1052       H  0.46615400  0.68096033  0.98810337     0.79680
H1053       H  0.45584042  0.77007744  0.96917681     0.81900
H1054       H  0.05050720  0.79815889  0.90151634     0.79510
H1055       H  0.45065392  0.65084954  0.07309364     0.42550
H1056       H  0.40441322  0.65686951  0.04033994     0.41520
H1057       H  0.38195408  0.67129974  0.98208146     0.41190
H1058       H  0.45923654  0.78512319  0.85874276     0.39130
H1059       H  0.04868637  0.85709014  0.89963697     0.42260
H1060       H  0.10147998  0.84267611  0.93546035     0.37040
H1061       H  0.09579660  0.80130135  0.06237760     0.43160
H1062       H  0.04370027  0.72905802  0.11597947     0.39580
H1063       H  0.45950434  0.80204396  0.89350696     0.44490
H1064       H  0.09533311  0.85833986  0.96396083     0.43220
H1065       H  0.01956368  0.69537985  0.13461615     0.43350
H1066       H  0.40704911  0.64761196  0.99663879     0.43710
O1067       O  0.06065696  0.75350098  0.55617069    -0.75160
O1068       O  0.06343280  0.75332657  0.48136414    -0.54070
C1069       C  0.07246006  0.75461206  0.52132170     0.78570
O1070       O  0.42098876  0.66821763  0.56481786    -0.59760
O1071       O  0.40742715  0.69651461  0.54602401    -0.52790
C1072       C  0.40225764  0.67087079  0.55083786     0.70580
O1073       O  0.47152493  0.66955103  0.46240331    -0.74320
O1074       O  0.01841344  0.70183277  0.46100904    -0.54880
C1075       C  0.99518482  0.67474692  0.46598861     0.76590
O1076       O  0.49722433  0.74833755  0.63648008    -0.59460
O1077       O  0.45805737  0.74609487  0.62175475    -0.52580
C1078       C  0.47642194  0.74699662  0.64820242     0.73180
Zr1079     Zr  0.01886605  0.74950802  0.57168652     2.54710
O1080       O  0.01324368  0.70951738  0.62709772    -0.80030
O1081       O  0.05712362  0.78823319  0.61109027    -0.93450
Zr1082     Zr  0.45681953  0.68655065  0.51011614     2.64680
O1083       O  0.45779094  0.65028279  0.56458083    -0.98400
O1084       O  0.41774947  0.64595856  0.47483683    -0.80460
O1085       O  0.00589312  0.71862934  0.51783451    -0.83820
O1086       O  0.46966772  0.71694900  0.56534401    -2.18530
O1087       O  0.50609156  0.83100568  0.51529297    -0.67210
O1088       O  0.45947496  0.79449750  0.53048305    -0.51770
C1089       C  0.48115973  0.82242611  0.52005595     0.71560
O1090       O  0.48173569  0.74860329  0.35034757    -0.60120
O1091       O  0.01947996  0.74829498  0.36632104    -0.52090
C1092       C  0.00158437  0.74805150  0.33929005     0.73360
O1093       O  0.41635553  0.73867228  0.43717597    -0.71510
O1094       O  0.41389813  0.74049215  0.51144910    -0.50190
C1095       C  0.40413785  0.73710403  0.47214022     0.74750
O1096       O  0.05344138  0.82343141  0.41800575    -0.66840
O1097       O  0.07248928  0.80061008  0.43075780    -0.54040
C1098       C  0.07484030  0.82459709  0.42848481     0.73130
Zr1099     Zr  0.02301565  0.81076269  0.47914225     2.77540
O1100       O  0.03110288  0.85408794  0.42962291    -0.97590
O1101       O  0.06231827  0.84336466  0.52371647    -0.78410
Zr1102     Zr  0.46044160  0.74767237  0.41648590     2.70070
O1103       O  0.46555468  0.78880118  0.36515196    -0.79660
O1104       O  0.42384532  0.71154282  0.37202396    -0.98740
Zr1105     Zr  0.02560764  0.75053451  0.44663159     2.21500
Zr1106     Zr  0.45403059  0.74680509  0.54095711     2.11130
O1107       O  0.47403544  0.77880753  0.46968697    -2.47430
O1108       O  0.00991879  0.78046156  0.42361884    -0.79450
O1109       O  0.50345637  0.77934036  0.54982058    -0.71650
O1110       O  0.47581982  0.71809065  0.43891089    -2.32600
O1111       O  0.03820073  0.78117527  0.50239553    -2.28810
O1112       O  0.44127464  0.71584131  0.48631718    -0.73410
H1113       H  0.46181264  0.70516923  0.59487649     0.78590
H1114       H  0.47088818  0.70648957  0.41557827     0.79680
H1115       H  0.46713767  0.79006359  0.45874875     0.81900
H1116       H  0.05801501  0.79385494  0.50732512     0.79510
H1117       H  0.41848680  0.65536752  0.44348702     0.42550
H1118       H  0.41136835  0.69331575  0.39447158     0.41520
H1119       H  0.48578997  0.80580782  0.36536232     0.41190
H1120       H  0.51211505  0.84888869  0.42496597     0.39130
H1121       H  0.05445836  0.83618001  0.55500413     0.42260
H1122       H  0.07240104  0.80243722  0.58784094     0.37040
H1123       H  0.01576099  0.69838457  0.60949928     0.43160
H1124       H  0.47787244  0.65872478  0.56586156     0.39580
H1125       H  0.04058361  0.87010448  0.44804646     0.44490
H1126       H  0.06405523  0.77837603  0.63098495     0.43220
H1127       H  0.44888241  0.63278834  0.54947458     0.43350
H1128       H  0.41264864  0.71868674  0.36167885     0.43710
O1129       O  0.17227081  0.93078376  0.07307173    -0.75160
O1130       O  0.15590604  0.92054071  0.00284316    -0.54070
C1131       C  0.15278315  0.91606339  0.04632367     0.78570
O1132       O  0.24094397  0.56866829  0.02948717    -0.59760
O1133       O  0.28538849  0.58407353  0.04633418    -0.52790
C1134       C  0.26465138  0.58565177  0.04717973     0.70580
O1135       O  0.17005831  0.50364102  0.95655391    -0.74320
O1136       O  0.15491733  0.96142194  0.93145798    -0.54880
C1137       C  0.15122146  0.98057210  0.93837635     0.76590
O1138       O  0.24833910  0.99729866  0.13118182    -0.59460
O1139       O  0.29007660  0.54279598  0.10592983    -0.52580
C1140       C  0.27154559  0.52256092  0.13726054     0.73180
Zr1141     Zr  0.22169191  0.97009670  0.07042692     2.54710
O1142       O  0.19521384  0.95965420  0.13741941    -0.80030
O1143       O  0.22644758  0.93204181  0.10685694    -0.93450
Zr1144     Zr  0.21734105  0.52916658  0.98660014     2.64680
O1145       O  0.18043569  0.52028790  0.03156156    -0.98400
O1146       O  0.22503481  0.57097548  0.93324465    -0.80460
O1147       O  0.19687252  0.97843909  0.01246867    -0.83820
O1148       O  0.24116752  0.52072983  0.04663486    -2.18530
O1149       O  0.31829721  0.50582572  0.00227239    -0.67210
O1150       O  0.33088913  0.54501771  0.03452719    -0.51770
C1151       C  0.33654500  0.52873187  0.02118981     0.71560
O1152       O  0.23908965  0.50780181  0.84253447    -0.60120
O1153       O  0.19625152  0.96337297  0.86574344    -0.52090
C1154       C  0.21544500  0.98349970  0.83494402     0.73360
O1155       O  0.31537218  0.57951360  0.90167811    -0.71510
O1156       O  0.32903969  0.58782204  0.97365282    -0.50190
C1157       C  0.33374807  0.59363960  0.93064162     0.74750
O1158       O  0.24484086  0.94903792  0.91980406    -0.66840
O1159       O  0.19809215  0.92029022  0.93372088    -0.54040
C1160       C  0.22038588  0.92375507  0.92278544     0.73130
Zr1161     Zr  0.26795490  0.97551351  0.98296224     2.77540
O1162       O  0.29359735  0.96294430  0.94823381    -0.97590
O1163       O  0.25647485  0.93235165  0.03747418    -0.78410
Zr1164     Zr  0.26607814  0.53644168  0.90162678     2.70070
O1165       O  0.29445851  0.54542679  0.83860739    -0.79660
O1166       O  0.26021932  0.57308571  0.86189154    -0.98740
Zr1167     Zr  0.19576171  0.95941968  0.94841812     2.21500
Zr1168     Zr  0.28930438  0.54642491  0.02372164     2.11130
O1169       O  0.28959095  0.52688357  0.96034296    -2.47430
O1170       O  0.24400099  0.98511853  0.92501105    -0.79450
O1171       O  0.26872059  0.99444035  0.04707439    -0.71650
O1172       O  0.21844933  0.51165179  0.92331795    -2.32600
O1173       O  0.22033913  0.94975403  0.00811054    -2.28810
O1174       O  0.26533470  0.55571868  0.96346440    -0.73410
H1175       H  0.23989485  0.52758323  0.07234211     0.78590
H1176       H  0.20881219  0.51486452  0.89870640     0.79680
H1177       H  0.30844396  0.53623811  0.94972389     0.81900
H1178       H  0.21079035  0.92856955  0.01691706     0.79510
H1179       H  0.24429255  0.58847866  0.93846878     0.42550
H1180       H  0.27603406  0.59209906  0.87136733     0.41520
H1181       H  0.29986898  0.53219959  0.84853763     0.41190
H1182       H  0.30937942  0.48166933  0.93080410     0.39130
H1183       H  0.27312765  0.94036768  0.05637360     0.42260
H1184       H  0.20934077  0.91769505  0.12676569     0.37040
H1185       H  0.19043974  0.97358423  0.13086471     0.43160
H1186       H  0.18264762  0.51267555  0.06240811     0.39580
H1187       H  0.30240584  0.95785778  0.97324337     0.44490
H1188       H  0.24194639  0.94213403  0.12772769     0.43220
H1189       H  0.18596610  0.54027941  0.03254362     0.43350
H1190       H  0.26496189  0.57550846  0.82998407     0.43710
O1191       O  0.25441681  0.56896167  0.54700563    -0.75160
O1192       O  0.20716111  0.53450996  0.55819829    -0.54070
C1193       C  0.23063867  0.56117364  0.55861319     0.78570
O1194       O  0.23706236  0.51734416  0.33604068    -0.59760
O1195       O  0.27712730  0.52161970  0.35252328    -0.52790
C1196       C  0.25988206  0.52184622  0.32459577     0.70580
O1197       O  0.17335840  0.00834282  0.42766762    -0.74320
O1198       O  0.16593976  0.99824109  0.50435530    -0.54880
C1199       C  0.16118280  0.00514975  0.46395250     0.76590
O1200       O  0.30576559  0.58399921  0.43212388    -0.59460
O1201       O  0.32128259  0.55734128  0.44095643    -0.52580
C1202       C  0.32520649  0.58186327  0.44215040     0.73180
Zr1203     Zr  0.26755436  0.55865227  0.48567293     2.54710
O1204       O  0.25790201  0.59108160  0.44046460    -0.80030
O1205       O  0.30724828  0.60154309  0.51679254    -0.93450
Zr1206     Zr  0.21098443  0.00701139  0.40580574     2.64680
O1207       O  0.21569771  0.54908940  0.35849656    -0.98400
O1208       O  0.17258334  0.97141817  0.36262886    -0.80460
O1209       O  0.21951846  0.52762710  0.47207010    -0.83820
O1210       O  0.25935580  0.53843498  0.41917012    -2.18530
O1211       O  0.30258603  0.99466059  0.54154318    -0.67210
O1212       O  0.31103809  0.00636542  0.46509434    -0.51770
C1213       C  0.31655998  0.00080017  0.50558351     0.71560
O1214       O  0.17368639  0.91942222  0.54477726    -0.60120
O1215       O  0.15126887  0.93838872  0.54074834    -0.52090
C1216       C  0.15108983  0.91632093  0.53754141     0.73360
O1217       O  0.22657694  0.92468454  0.44192032    -0.71510
O1218       O  0.26926609  0.96563618  0.41090520    -0.50190
C1219       C  0.24925914  0.93703442  0.41897834     0.74750
O1220       O  0.23768883  0.98139800  0.63210429    -0.66840
O1221       O  0.19804969  0.97832158  0.61835395    -0.54040
C1222       C  0.21596861  0.97836096  0.64491549     0.73130
Zr1223     Zr  0.26084007  0.98916567  0.56140956     2.77540
O1224       O  0.25226917  0.94414016  0.60505222    -0.97590
O1225       O  0.29836436  0.52199590  0.60831155    -0.78410
Zr1226     Zr  0.20361072  0.93832562  0.47954568     2.70070
O1227       O  0.18868872  0.88793782  0.50558431    -0.79660
O1228       O  0.16646747  0.91435219  0.42666863    -0.98740
Zr1229     Zr  0.19741221  0.98886038  0.53660238     2.21500
Zr1230     Zr  0.27518916  0.00853250  0.43357096     2.11130
O1231       O  0.25172141  0.96816414  0.49558929    -2.47430
O1232       O  0.21235234  0.95797956  0.54721757    -0.79450
O1233       O  0.28368732  0.52939810  0.49977320    -0.71650
O1234       O  0.18791845  0.96800557  0.46846508    -2.32600
O1235       O  0.24636954  0.51956958  0.54952646    -2.28810
O1236       O  0.22666938  0.97734769  0.41711904    -0.73410
H1237       H  0.26819990  0.55330741  0.39224621     0.78590
H1238       H  0.16822593  0.95618541  0.46217777     0.79680
H1239       H  0.25850544  0.95651283  0.49938536     0.81900
H1240       H  0.24998791  0.52701021  0.57733193     0.79510
H1241       H  0.15535816  0.96142628  0.38158703     0.42550
H1242       H  0.17616898  0.92432801  0.39662300     0.41520
H1243       H  0.20043506  0.88975605  0.53166599     0.41190
H1244       H  0.25415112  0.93477415  0.58284258     0.39130
H1245       H  0.30575768  0.54236730  0.59293519     0.42260
H1246       H  0.30662527  0.59448482  0.54946446     0.37040
H1247       H  0.23820805  0.58205828  0.44843473     0.43160
H1248       H  0.23613098  0.56432460  0.35134884     0.39580
H1249       H  0.26901560  0.95152755  0.62358178     0.44490
H1250       H  0.30305969  0.61585352  0.51443437     0.43220
H1251       H  0.20741489  0.54205997  0.32976079     0.43350
H1252       H  0.16100829  0.89401751  0.43013147     0.43710
O1253       O  0.25009735  0.68591316  0.08779139    -0.75160
O1254       O  0.25994465  0.68570099  0.01633663    -0.54070
C1255       C  0.25722884  0.67689596  0.05932964     0.78570
O1256       O  0.16812871  0.73985410  0.98775022    -0.59760
O1257       O  0.19444116  0.77882360  0.02579848    -0.52790
C1258       C  0.17236913  0.76095004  0.00413430     0.70580
O1259       O  0.18676246  0.68677886  0.94179249    -0.74320
O1260       O  0.20817428  0.66880118  0.97382753    -0.54880
C1261       C  0.18497366  0.66478580  0.96303424     0.76590
O1262       O  0.23639020  0.74493450  0.14543628    -0.59460
O1263       O  0.23752695  0.78532836  0.11592563    -0.52580
C1264       C  0.23610636  0.76671731  0.14915422     0.73180
Zr1265     Zr  0.24107332  0.72339595  0.08730230     2.54710
O1266       O  0.19977190  0.67872007  0.13014645    -0.80030
O1267       O  0.27267868  0.72961420  0.14788251    -0.93450
Zr1268     Zr  0.19156400  0.71861555  0.98851908     2.64680
O1269       O  0.15539970  0.67870647  0.04469179    -0.98400
O1270       O  0.15523770  0.71007166  0.93605790    -0.80460
O1271       O  0.21854371  0.70290394  0.02203454    -0.83820
O1272       O  0.21219558  0.73765120  0.05610917    -2.18530
O1273       O  0.30316346  0.82006111  0.06136931    -0.67210
O1274       O  0.28413346  0.84196915  0.03918415    -0.51770
C1275       C  0.30643973  0.84402762  0.04558358     0.71560
O1276       O  0.26138614  0.76819741  0.85586105    -0.60120
O1277       O  0.25770180  0.72597760  0.88508632    -0.52090
C1278       C  0.26027787  0.74548994  0.85189638     0.73360
O1279       O  0.24142227  0.82302717  0.91744138    -0.71510
O1280       O  0.23930825  0.82754894  0.99003633    -0.50190
C1281       C  0.23707247  0.83348134  0.94781361     0.74750
O1282       O  0.33031474  0.77477522  0.00765051    -0.66840
O1283       O  0.30335163  0.73372326  0.97373900    -0.54040
C1284       C  0.32628913  0.75313420  0.99304554     0.73130
Zr1285     Zr  0.30527489  0.79442835  0.00937956     2.77540
O1286       O  0.33633873  0.83146286  0.94586885    -0.97590
O1287       O  0.34825512  0.81521542  0.04991319    -0.78410
Zr1288     Zr  0.25547613  0.78968341  0.91325477     2.70070
O1289       O  0.29713535  0.83604743  0.87397678    -0.79660
O1290       O  0.22618426  0.78518945  0.84975424    -0.98740
Zr1291     Zr  0.25474465  0.72051708  0.96751363     2.21500
Zr1292     Zr  0.24182635  0.79083127  0.03444468     2.11130
O1293       O  0.27793546  0.80984379  0.97782550    -2.47430
O1294       O  0.28334536  0.77387068  0.94404270    -0.79450
O1295       O  0.27052100  0.77634201  0.06589867    -0.71650
O1296       O  0.22752569  0.73716363  0.93410628    -2.32600
O1297       O  0.27648405  0.74226697  0.03276403    -2.28810
O1298       O  0.22037314  0.77069956  0.96847165    -0.73410
H1299       H  0.19783332  0.73126064  0.07789875     0.78590
H1300       H  0.22004686  0.73092502  0.90555705     0.79680
H1301       H  0.28917430  0.83109600  0.96799466     0.81900
H1302       H  0.28752225  0.73639054  0.04744630     0.79510
H1303       H  0.16526990  0.71999013  0.90622853     0.42550
H1304       H  0.20848655  0.77877579  0.86351972     0.41520
H1305       H  0.30684479  0.82987112  0.86069102     0.41190
H1306       H  0.33323191  0.84664606  0.94075244     0.39130
H1307       H  0.34200423  0.81024312  0.08180318     0.42260
H1308       H  0.28912201  0.73381977  0.13308187     0.37040
H1309       H  0.19564681  0.66207839  0.11679711     0.43160
H1310       H  0.16517679  0.67311316  0.06657546     0.39580
H1311       H  0.35560241  0.84140874  0.95690856     0.44490
H1312       H  0.26311416  0.70938779  0.16602401     0.43220
H1313       H  0.15054835  0.68842437  0.06120145     0.43350
H1314       H  0.23529575  0.80597830  0.83431299     0.43710
O1315       O  0.17684925  0.67671597  0.43716251    -0.75160
O1316       O  0.17321631  0.71390647  0.40964586    -0.54070
C1317       C  0.16598811  0.68726717  0.41150170     0.78570
O1318       O  0.22851041  0.73467929  0.64699680    -0.59760
O1319       O  0.26645694  0.73537492  0.63993628    -0.52790
C1320       C  0.24890250  0.73442257  0.66338022     0.70580
O1321       O  0.17298814  0.74412289  0.54942960    -0.74320
O1322       O  0.17266310  0.75322934  0.47272153    -0.54880
C1323       C  0.16364358  0.74957621  0.51237868     0.76590
O1324       O  0.22003066  0.66163449  0.54405628    -0.59460
O1325       O  0.26191447  0.69234655  0.57670749    -0.52580
C1326       C  0.24097813  0.66660604  0.56683143     0.73180
Zr1327     Zr  0.20914659  0.69142745  0.49634781     2.54710
O1328       O  0.16365657  0.65163706  0.53464181    -0.80030
O1329       O  0.21211503  0.65921612  0.45966493    -0.93450
Zr1330     Zr  0.20817042  0.73723285  0.57365668     2.64680
O1331       O  0.16676095  0.68838934  0.60761306    -0.98400
O1332       O  0.20366258  0.76240971  0.62433181    -0.80460
O1333       O  0.19211490  0.71791370  0.50529319    -0.83820
O1334       O  0.22385867  0.70941820  0.56516761    -2.18530
O1335       O  0.30894295  0.75449738  0.45004784    -0.67210
O1336       O  0.31193908  0.74656139  0.52639068    -0.51770
C1337       C  0.31917421  0.74925156  0.48563751     0.71560
O1338       O  0.26560246  0.83943506  0.45973132    -0.60120
O1339       O  0.22680540  0.81068068  0.41977385    -0.52090
C1340       C  0.24753140  0.83626954  0.43083902     0.73360
O1341       O  0.29464139  0.81190833  0.58452647    -0.71510
O1342       O  0.31225659  0.78647440  0.59165459    -0.50190
C1343       C  0.31296116  0.80819833  0.59947509     0.74750
O1344       O  0.26024172  0.77279564  0.35514532    -0.66840
O1345       O  0.22012084  0.76803765  0.36167741    -0.54040
C1346       C  0.23954168  0.77215665  0.33825680     0.73130
Zr1347     Zr  0.27726339  0.76587398  0.42915120     2.77540
O1348       O  0.31977060  0.81552211  0.40094085    -0.97590
O1349       O  0.28343731  0.74492764  0.37291125    -0.78410
Zr1350     Zr  0.27673553  0.81039707  0.50950862     2.70070
O1351       O  0.32567031  0.84980838  0.48450931    -0.79660
O1352       O  0.27817035  0.84757911  0.53970794    -0.98740
Zr1353     Zr  0.21173877  0.75865463  0.44292346     2.21500
Zr1354     Zr  0.27402314  0.74287214  0.55889675     2.11130
O1355       O  0.29413102  0.78466498  0.49779382    -2.47430
O1356       O  0.26182354  0.79323605  0.43955676    -0.79450
O1357       O  0.25864042  0.72470197  0.48957738    -0.71650
O1358       O  0.22703943  0.77797182  0.51226652    -2.32600
O1359       O  0.22800912  0.73122205  0.43397908    -2.28810
O1360       O  0.25745493  0.76981634  0.56925663    -0.73410
H1361       H  0.21718037  0.69340820  0.59054503     0.78590
H1362       H  0.22092215  0.78966761  0.51527051     0.79680
H1363       H  0.31443605  0.79732185  0.49779115     0.81900
H1364       H  0.22221090  0.72342706  0.40618346     0.79510
H1365       H  0.22047790  0.78354092  0.61684211     0.42550
H1366       H  0.26212794  0.83576784  0.56194458     0.41520
H1367       H  0.32519350  0.85350645  0.45128209     0.41190
H1368       H  0.33513804  0.81683347  0.41807916     0.39130
H1369       H  0.26736464  0.72338512  0.37902044     0.42260
H1370       H  0.21906122  0.67013908  0.42852795     0.37040
H1371       H  0.15082565  0.65619619  0.52168402     0.43160
H1372       H  0.17423388  0.68023382  0.63023506     0.39580
H1373       H  0.32290191  0.81454644  0.36996889     0.44490
H1374       H  0.19238603  0.64171325  0.45685312     0.43220
H1375       H  0.15722047  0.69282604  0.62566069     0.43350
H1376       H  0.29502315  0.85704097  0.55809338     0.43710
C1377       C  0.25317051  0.73464755  0.71259583    -0.00020
C1378       C  0.27813556  0.75949793  0.72688850    -0.11900
C1379       C  0.28142386  0.76289579  0.77241113     0.02210
C1380       C  0.25988541  0.74069379  0.80500427    -0.00110
C1381       C  0.23559098  0.71505466  0.79104330    -0.11840
C1382       C  0.23192567  0.71210588  0.74530657     0.02100
H1383       H  0.29457714  0.77703086  0.70209261     0.15080
H1384       H  0.21876446  0.69798073  0.81562366     0.15080
C1385       C  0.20604287  0.68591698  0.73262482     0.36730
C1386       C  0.30689974  0.78959326  0.78482266     0.36640
N1387       N  0.18529167  0.66488849  0.72251461    -0.43610
N1388       N  0.32733201  0.81100029  0.79475452    -0.43610
C1389       C  0.23507079  0.77094886  0.19563156    -0.00020
C1390       C  0.25975220  0.79423392  0.21297258    -0.11900
C1391       C  0.26119724  0.79605545  0.25893253     0.02210
C1392       C  0.23745028  0.77456960  0.28842270    -0.00110
C1393       C  0.21218927  0.75246139  0.27034713    -0.11840
C1394       C  0.21095348  0.75032237  0.22450780     0.02100
H1395       H  0.27836439  0.81023597  0.19096633     0.15080
H1396       H  0.19382805  0.73576360  0.29255536     0.15080
C1397       C  0.18494019  0.72637024  0.20793823     0.36730
C1398       C  0.28740913  0.81997927  0.27515755     0.36640
N1399       N  0.16410389  0.70723334  0.19450689    -0.43610
N1400       N  0.30840921  0.83920126  0.28810262    -0.43610
C1401       C  0.25187913  0.91530469  0.40466400    -0.00020
C1402       C  0.27659332  0.91817080  0.41273588    -0.11900
C1403       C  0.27645137  0.89338383  0.41587814     0.02210
C1404       C  0.25085850  0.86452258  0.41241105    -0.00110
C1405       C  0.22734782  0.86293982  0.39785615    -0.11840
C1406       C  0.22770136  0.88789603  0.39358036     0.02100
H1407       H  0.29555156  0.93915252  0.42005086     0.15080
H1408       H  0.20807306  0.84178813  0.39255208     0.15080
C1409       C  0.20239767  0.88433989  0.37963029     0.36730
C1410       C  0.30294068  0.89838375  0.42384372     0.36640
N1411       N  0.18209157  0.88132401  0.36810940    -0.43610
N1412       N  0.32434856  0.90276855  0.42988537    -0.43610
C1413       C  0.23260414  0.58720255  0.56658898    -0.00020
C1414       C  0.25031443  0.61359471  0.53536315    -0.11900
C1415       C  0.25483809  0.63997566  0.53782984     0.02210
C1416       C  0.24243783  0.64148033  0.57340675    -0.00110
C1417       C  0.22476897  0.61533075  0.60556517    -0.11840
C1418       C  0.21997171  0.58825378  0.60258248     0.02100
H1419       H  0.26000805  0.61342562  0.50704954     0.15080
H1420       H  0.21393471  0.61575810  0.63185298     0.15080
C1421       C  0.20249211  0.56226902  0.63653904     0.36730
C1422       C  0.26910055  0.66383686  0.49949913     0.36640
N1423       N  0.18860384  0.54143519  0.66395452    -0.43610
N1424       N  0.27966610  0.68213108  0.46775654    -0.43610
C1425       C  0.21146253  0.97997938  0.78637300    -0.00020
C1426       C  0.22583067  0.50633667  0.75383891    -0.11900
C1427       C  0.22719238  0.50579090  0.70822064     0.02210
C1428       C  0.21333457  0.97840947  0.69326397    -0.00110
C1429       C  0.19799334  0.95177089  0.72489316    -0.11840
C1430       C  0.19706981  0.95234091  0.77124787     0.02100
H1431       H  0.23698275  0.52784442  0.76432236     0.15080
H1432       H  0.18739092  0.93061094  0.71358183     0.15080
C1433       C  0.18264470  0.92452335  0.80257532     0.36730
C1434       C  0.24416927  0.53394300  0.67774029     0.36640
N1435       N  0.17111298  0.90219564  0.82767926    -0.43610
N1436       N  0.25811207  0.55664891  0.65382247    -0.43610
C1437       C  0.27533153  0.52805819  0.18412834    -0.00020
C1438       C  0.26762170  0.54472692  0.19602393    -0.11900
C1439       C  0.26298227  0.54370051  0.24141909     0.02210
C1440       C  0.26637378  0.52595213  0.27596337    -0.00110
C1441       C  0.27547976  0.01046070  0.26399839    -0.11840
C1442       C  0.27959639  0.51114745  0.21857400     0.02100
H1443       H  0.26367269  0.55726546  0.16966868     0.15080
H1444       H  0.27820942  0.99673430  0.29001630     0.15080
C1445       C  0.28657429  0.99274743  0.20828962     0.36730
C1446       C  0.25486605  0.56112256  0.25136872     0.36640
N1447       N  0.29216448  0.97806696  0.19990899    -0.43610
N1448       N  0.24852839  0.57538855  0.25865039    -0.43610
C1449       C  0.22847018  0.85354631  0.93571260    -0.00020
C1450       C  0.23891290  0.87492641  0.89587160    -0.11900
C1451       C  0.23511727  0.89729504  0.88874705     0.02210
C1452       C  0.21901179  0.89733985  0.92024721    -0.00110
C1453       C  0.20641255  0.87449136  0.95733739    -0.11840
C1454       C  0.21193739  0.85386845  0.96662294     0.02100
H1455       H  0.25176112  0.87557177  0.87193224     0.15080
H1456       H  0.19463341  0.87477064  0.98223929     0.15080
C1457       C  0.20208472  0.83565100  0.01081269     0.36730
C1458       C  0.24856435  0.92047814  0.84963301     0.36640
N1459       N  0.19418476  0.82257681  0.04714438    -0.43610
N1460       N  0.25934475  0.93912777  0.81831131    -0.43610
C1461       C  0.26202867  0.65407095  0.07543807    -0.00020
C1462       C  0.23895490  0.62410067  0.08730309    -0.11900
C1463       C  0.24133958  0.60140558  0.08625940     0.02210
C1464       C  0.26625779  0.60832787  0.06812909    -0.00110
C1465       C  0.29031849  0.63815600  0.06286620    -0.11840
C1466       C  0.28846231  0.66055167  0.06946024     0.02100
H1467       H  0.21890843  0.61837865  0.09628243     0.15080
H1468       H  0.31044850  0.64397508  0.05413606     0.15080
C1469       C  0.31312839  0.68662882  0.08364023     0.36730
C1470       C  0.21812567  0.57123886  0.10514385     0.36640
N1471       N  0.33248352  0.70534051  0.10013887    -0.43610
N1472       N  0.19968025  0.54739113  0.12189689    -0.43610
C1473       C  0.34860909  0.60544396  0.46606980    -0.00020
C1474       C  0.35425812  0.59668423  0.50934166    -0.11900
C1475       C  0.36923771  0.61696987  0.53945703     0.02210
C1476       C  0.37920524  0.64697940  0.52659069    -0.00110
C1477       C  0.37312277  0.65552117  0.48357396    -0.11840
C1478       C  0.35828398  0.63532757  0.45344041     0.02100
H1479       H  0.34563100  0.57350820  0.52062545     0.15080
H1480       H  0.38117392  0.67845079  0.47240861     0.15080
C1481       C  0.35272288  0.64570457  0.40980789     0.36730
C1482       C  0.37415915  0.60639115  0.58347528     0.36640
N1483       N  0.34822544  0.65403275  0.37492478    -0.43610
N1484       N  0.37812729  0.59787456  0.61870214    -0.43610
C1485       C  0.09763159  0.84982016  0.45194621    -0.00020
C1486       C  0.10997575  0.84397442  0.48952057    -0.11900
C1487       C  0.12491105  0.86402956  0.52012817     0.02210
C1488       C  0.12908284  0.89154636  0.51293130    -0.00110
C1489       C  0.11709821  0.89763173  0.47506691    -0.11840
C1490       C  0.10229244  0.87763770  0.44427922     0.02100
H1491       H  0.10668397  0.82289533  0.49658276     0.15080
H1492       H  0.12043584  0.91873018  0.46806976     0.15080
C1493       C  0.09312582  0.88688610  0.40393604     0.36730
C1494       C  0.13471605  0.85514840  0.56000141     0.36640
N1495       N  0.08604458  0.89453671  0.37147108    -0.43610
N1496       N  0.14247330  0.84792994  0.59197940    -0.43610
C1497       C  0.37759660  0.73282131  0.46816530    -0.00020
C1498       C  0.37607326  0.75179283  0.43418133    -0.11900
C1499       C  0.35706106  0.75748879  0.43869637     0.02210
C1500       C  0.33957983  0.74425668  0.47840953    -0.00110
C1501       C  0.33952167  0.72331169  0.51023259    -0.11840
C1502       C  0.35769412  0.71684016  0.50489736     0.02100
H1503       H  0.39124317  0.76403851  0.40592227     0.15080
H1504       H  0.32494990  0.71163388  0.53927931     0.15080
C1505       C  0.35563680  0.69421950  0.53870357     0.36730
C1506       C  0.35721622  0.77812963  0.40302749     0.36640
N1507       N  0.35267775  0.67570853  0.56667008    -0.43610
N1508       N  0.35738969  0.79445469  0.37393265    -0.43610
C1509       C  0.14151414  0.75287411  0.51615288    -0.00020
C1510       C  0.12526177  0.74044165  0.55672648    -0.11900
C1511       C  0.10351039  0.74230278  0.56121203     0.02210
C1512       C  0.09854362  0.75771573  0.52513732    -0.00110
C1513       C  0.11649829  0.77246554  0.48653913    -0.11840
C1514       C  0.13691548  0.76918074  0.48083240     0.02100
H1515       H  0.12867699  0.72808052  0.58434869     0.15080
H1516       H  0.11312840  0.78489368  0.45887598     0.15080
C1517       C  0.15110127  0.78117309  0.43703685     0.36730
C1518       C  0.08571328  0.72670050  0.60169750     0.36640
N1519       N  0.16151214  0.78991336  0.40130879    -0.43610
N1520       N  0.07153406  0.71415157  0.63425304    -0.43610
C1521       C  0.49216290  0.75860011  0.78384494    -0.00020
C1522       C  0.48340113  0.73183491  0.77171924    -0.11900
C1523       C  0.47483753  0.72601634  0.72831245     0.02210
C1524       C  0.47496969  0.74719189  0.69606363    -0.00110
C1525       C  0.48178820  0.77295423  0.70866111    -0.11840
C1526       C  0.49036327  0.77886569  0.75223552     0.02100
H1527       H  0.48346725  0.71545969  0.79607395     0.15080
H1528       H  0.48246611  0.78952736  0.68351574     0.15080
C1529       C  0.49887746  0.80674828  0.76236049     0.36730
C1530       C  0.46703166  0.69866990  0.71691874     0.36640
N1531       N  0.50565826  0.82909969  0.77037435    -0.43610
N1532       N  0.46075469  0.67678409  0.70772763    -0.43610
C1533       C  0.00292959  0.74659558  0.29154223    -0.00020
C1534       C  0.49125580  0.71898601  0.27916510    -0.11900
C1535       C  0.48687358  0.71542030  0.23374277     0.02210
C1536       C  0.99395860  0.73974433  0.19999656    -0.00110
C1537       C  0.00644991  0.76757229  0.21257001    -0.11840
C1538       C  0.01094046  0.77112462  0.25773492     0.02100
H1539       H  0.48438703  0.69985288  0.30521415     0.15080
H1540       H  0.01277441  0.78672813  0.18694875     0.15080
C1541       C  0.02357926  0.80011644  0.26878295     0.36730
C1542       C  0.47341822  0.68617993  0.22309933     0.36640
N1543       N  0.03380942  0.82334772  0.27770514    -0.43610
N1544       N  0.46253515  0.66270669  0.21458450    -0.43610
C1545       C  0.42005341  0.66224227  0.88775169    -0.00020
C1546       C  0.39935423  0.66543910  0.87100803    -0.11900
C1547       C  0.37086628  0.64290469  0.88331072     0.02210
C1548       C  0.36290163  0.61685807  0.91307818    -0.00110
C1549       C  0.38291751  0.61189992  0.92438188    -0.11840
C1550       C  0.41127865  0.63406586  0.91059949     0.02100
H1551       H  0.40570992  0.68674640  0.85211112     0.15080
H1552       H  0.37641362  0.59085982  0.94449204     0.15080
C1553       C  0.43089149  0.62756148  0.92045815     0.36730
C1554       C  0.35066867  0.64817662  0.86857970     0.36640
N1555       N  0.44658081  0.62216647  0.92664467    -0.43610
N1556       N  0.33448164  0.65241249  0.85683632    -0.43610
C1557       C  0.07281910  0.84759309  0.11336865    -0.00020
C1558       C  0.09535672  0.84632429  0.12330835    -0.11900
C1559       C  0.12097329  0.86751860  0.09848428     0.02210
C1560       C  0.12521514  0.89238061  0.06956962    -0.00110
C1561       C  0.10588675  0.89805044  0.07348277    -0.11840
C1562       C  0.08032920  0.87610595  0.09837586     0.02100
H1563       H  0.09085849  0.82546469  0.14043499     0.15080
H1564       H  0.11112466  0.91959848  0.05875570     0.15080
C1565       C  0.06232201  0.88272636  0.11003343     0.36730
C1566       C  0.14183315  0.86252569  0.10121296     0.36640
N1567       N  0.04792276  0.88795377  0.12019506    -0.43610
N1568       N  0.15852062  0.85851219  0.10312021    -0.43610
C1569       C  0.39558406  0.74766947  0.01592859    -0.00020
C1570       C  0.38951195  0.75862327  0.04641275    -0.11900
C1571       C  0.36738328  0.76076172  0.03941099     0.02210
C1572       C  0.35000037  0.75105682  0.00136807    -0.00110
C1573       C  0.35699506  0.74148146  0.96983778    -0.11840
C1574       C  0.37995935  0.74077783  0.97576295     0.02100
H1575       H  0.40149880  0.76467155  0.07660312     0.15080
H1576       H  0.34522083  0.73573090  0.93940189     0.15080
C1577       C  0.38832078  0.73546332  0.93776853     0.36730
C1578       C  0.36130701  0.76963331  0.07536302     0.36640
N1579       N  0.39509088  0.73178803  0.90672121    -0.43610
N1580       N  0.35669486  0.77574555  0.10585238    -0.43610
C1581       C  0.10190693  0.75916675  0.96050986    -0.00020
C1582       C  0.09979663  0.74070757  0.00032566    -0.11900
C1583       C  0.12328107  0.74288780  0.01728648     0.02210
C1584       C  0.14977806  0.76406634  0.99467089    -0.00110
C1585       C  0.15180758  0.78204499  0.95419758    -0.11840
C1586       C  0.12835058  0.78025123  0.93764159     0.02100
H1587       H  0.07986001  0.72533394  0.01936807     0.15080
H1588       H  0.17163121  0.79706353  0.93493089     0.15080
C1589       C  0.13196218  0.80060936  0.89772037     0.36730
C1590       C  0.11972305  0.72301893  0.05794758     0.36640
N1591       N  0.13488646  0.81695848  0.86571224    -0.43610
N1592       N  0.11692261  0.70714319  0.09056328    -0.43610
C1593       C  0.38682552  0.88957662  0.62579080    -0.00020
C1594       C  0.38698179  0.86474437  0.63279459    -0.11900
C1595       C  0.36218056  0.83609705  0.63027104     0.02210
C1596       C  0.33662614  0.83200749  0.62338799    -0.00110
C1597       C  0.33597582  0.85526761  0.63004780    -0.11840
C1598       C  0.36099216  0.88409131  0.63116454     0.02100
H1599       H  0.40693012  0.86844096  0.63234220     0.15080
H1600       H  0.31620142  0.85194531  0.62937157     0.15080
C1601       C  0.35963392  0.90800485  0.63315776     0.36730
C1602       C  0.36432847  0.81256092  0.62959466     0.36640
N1603       N  0.35860160  0.92717467  0.63521269    -0.43610
N1604       N  0.36617285  0.79378244  0.62900973    -0.43610
C1605       C  0.08809960  0.60913512  0.38284666    -0.00020
C1606       C  0.11275354  0.61254120  0.37620071    -0.11900
C1607       C  0.13937365  0.64033986  0.37675890     0.02210
C1608       C  0.14173278  0.66490994  0.38682264    -0.00110
C1609       C  0.11761173  0.66294131  0.38625014    -0.11840
C1610       C  0.09110745  0.63585879  0.38372755     0.02100
H1611       H  0.11138304  0.59329914  0.37286290     0.15080
H1612       H  0.11915326  0.68184700  0.39239357     0.15080
C1613       C  0.06792813  0.63696375  0.38573185     0.36730
C1614       C  0.16406460  0.64299686  0.36787833     0.36640
N1615       N  0.05043413  0.63951135  0.38737624    -0.43610
N1616       N  0.18371412  0.64510003  0.35976654    -0.43610
C1617       C  0.33977119  0.99945337  0.50941757    -0.00020
C1618       C  0.33339906  0.97141422  0.52475842    -0.11900
C1619       C  0.35262023  0.96663580  0.51703402     0.02210
C1620       C  0.37851258  0.49032958  0.49468037    -0.00110
C1621       C  0.38486557  0.51821172  0.47932872    -0.11840
C1622       C  0.36575832  0.52307003  0.48662154     0.02100
H1623       H  0.31274505  0.95283786  0.53977805     0.15080
H1624       H  0.40483367  0.53620750  0.46179667     0.15080
C1625       C  0.37317144  0.55223192  0.46939787     0.36730
C1626       C  0.34470323  0.93694038  0.52825652     0.36640
N1627       N  0.37988021  0.57585117  0.45498164    -0.43610
N1628       N  0.33863802  0.91323077  0.53601204    -0.43610
C1629       C  0.08956466  0.50069639  0.47554615    -0.00020
C1630       C  0.11473993  0.52281583  0.49295999    -0.11900
C1631       C  0.13947148  0.52711422  0.48450102     0.02210
C1632       C  0.13880241  0.00804159  0.46040624    -0.00110
C1633       C  0.11395653  0.98654032  0.44184050    -0.11840
C1634       C  0.08943104  0.98305054  0.44834385     0.02100
H1635       H  0.11533358  0.53765981  0.51129092     0.15080
H1636       H  0.11349664  0.97171620  0.42363397     0.15080
C1637       C  0.06485988  0.96106700  0.42651489     0.36730
C1638       C  0.16548993  0.55256154  0.49798555     0.36640
N1639       N  0.04622005  0.94342104  0.40741349    -0.43610
N1640       N  0.18606753  0.57389392  0.50756025    -0.43610
C1641       C  0.48448462  0.89831939  0.45629187    -0.00020
C1642       C  0.50302903  0.90119409  0.49027117    -0.11900
C1643       C  0.50008757  0.87615008  0.51521956     0.02210
C1644       C  0.47852980  0.84701390  0.50617502    -0.00110
C1645       C  0.45981811  0.84403539  0.47239939    -0.11840
C1646       C  0.46250484  0.86913052  0.44787753     0.02100
H1647       H  0.01921680  0.92304430  0.49886216     0.15080
H1648       H  0.44392011  0.82222390  0.46341602     0.15080
C1649       C  0.44286108  0.86442541  0.41313076     0.36730
C1650       C  0.51947335  0.88093667  0.55052707     0.36640
N1651       N  0.42716264  0.86065090  0.38517307    -0.43610
N1652       N  0.03494881  0.88478492  0.57884612    -0.43610
C1653       C  0.49377775  0.64767791  0.48205880    -0.00020
C1654       C  0.51001919  0.64767985  0.51820179    -0.11900
C1655       C  0.50437212  0.62083013  0.54149143     0.02210
C1656       C  0.48190255  0.59297569  0.52928281    -0.00110
C1657       C  0.46505203  0.59296230  0.49443502    -0.11840
C1658       C  0.47111274  0.61971535  0.47027997     0.02100
H1659       H  0.52654901  0.66855934  0.52932663     0.15080
H1660       H  0.44875481  0.57218417  0.48309153     0.15080
C1661       C  0.45442472  0.61791757  0.43193335     0.36730
C1662       C  0.52193311  0.62231459  0.57813213     0.36640
N1663       N  0.44121022  0.61655360  0.40103741    -0.43610
N1664       N  0.53593169  0.62347594  0.60763505    -0.43610
C1665       C  0.48151774  0.98628468  0.69643461    -0.00020
C1666       C  0.99695311  0.97801946  0.72216452    -0.11900
C1667       C  0.99758781  0.97611382  0.76881102     0.02210
C1668       C  0.48273069  0.98276662  0.79018084    -0.00110
C1669       C  0.46627040  0.98955200  0.76526655    -0.11840
C1670       C  0.46515859  0.99104424  0.71886985     0.02100
H1671       H  0.00900914  0.97352828  0.70592310     0.15080
H1672       H  0.45459997  0.99426460  0.78221783     0.15080
C1673       C  0.44743616  0.99814585  0.69601769     0.36730
C1674       C  0.01476496  0.96891830  0.79365766     0.36640
N1675       N  0.43307536  0.00366743  0.67804104    -0.43610
N1676       N  0.02850174  0.96314546  0.81361879    -0.43610
C1677       C  0.48541354  0.50839757  0.18795850    -0.00020
C1678       C  0.01057720  0.52608976  0.20961706    -0.11900
C1679       C  0.01042738  0.52389651  0.25612850     0.02210
C1680       C  0.98452027  0.50394009  0.28113484    -0.00110
C1681       C  0.45922092  0.48760527  0.25880277    -0.11840
C1682       C  0.45952050  0.48953946  0.21237188     0.02100
H1683       H  0.03042657  0.54055788  0.19027180     0.15080
H1684       H  0.43928663  0.47262361  0.27786185     0.15080
C1685       C  0.43312785  0.97192612  0.19055618     0.36730
C1686       C  0.03706278  0.54239313  0.27698768     0.36640
N1687       N  0.41207687  0.95789871  0.17281880    -0.43610
N1688       N  0.05847809  0.55720340  0.29343371    -0.43610
C1689       C  0.33453946  0.86979344  0.02391566    -0.00020
C1690       C  0.35713552  0.87051370  0.04082903    -0.11900
C1691       C  0.38111554  0.88310062  0.01423837     0.02210
C1692       C  0.38523395  0.89979635  0.97048791    -0.00110
C1693       C  0.36384401  0.90252176  0.95582246    -0.11840
C1694       C  0.33866270  0.88763294  0.98173436     0.02100
H1695       H  0.35497606  0.85879261  0.07470198     0.15080
H1696       H  0.36657452  0.91598523  0.92342611     0.15080
C1697       C  0.31757780  0.89086957  0.96392399     0.36730
C1698       C  0.40010042  0.87770618  0.03541962     0.36640
N1699       N  0.30094744  0.89389849  0.94947503    -0.43610
N1700       N  0.41326001  0.87190232  0.05732324    -0.43610
C1701       C  0.10315354  0.60020437  0.03326265    -0.00020
C1702       C  0.12370053  0.59523486  0.03971100    -0.11900
C1703       C  0.15013967  0.61469979  0.01615950     0.02210
C1704       C  0.15625751  0.63923793  0.98416485    -0.00110
C1705       C  0.13487793  0.64275460  0.97650656    -0.11840
C1706       C  0.11017350  0.62560851  0.00331875     0.02100
H1707       H  0.11878962  0.57548644  0.06215577     0.15080
H1708       H  0.13799083  0.66033671  0.95107070     0.15080
C1709       C  0.09389852  0.63630241  0.00271711     0.36730
C1710       C  0.16939226  0.60753198  0.02249104     0.36640
N1711       N  0.08147812  0.64536408  0.00471584    -0.43610
N1712       N  0.18454529  0.60137291  0.02667973    -0.43610
C1713       C  0.36608145  0.53651864  0.02475356    -0.00020
C1714       C  0.38041167  0.54226432  0.98483722    -0.11900
C1715       C  0.40478498  0.54366981  0.98484832     0.02210
C1716       C  0.41612921  0.53867026  0.02551227    -0.00110
C1717       C  0.40242143  0.03403250  0.06606075    -0.11840
C1718       C  0.37818574  0.53328627  0.06571818     0.02100
H1719       H  0.37172513  0.54442219  0.95284401     0.15080
H1720       H  0.40963167  0.02912758  0.09788556     0.15080
C1721       C  0.36463623  0.02691182  0.10833306     0.36730
C1722       C  0.41694292  0.54855842  0.94175460     0.36640
N1723       N  0.35387665  0.02191099  0.14241708    -0.43610
N1724       N  0.42671638  0.55245950  0.90727118    -0.43610
C1725       C  0.12426186  0.97764233  0.92582935    -0.00020
C1726       C  0.09682398  0.95007356  0.92601106    -0.11900
C1727       C  0.07188651  0.94844546  0.92364327     0.02210
C1728       C  0.07374072  0.97412598  0.92445930    -0.00110
C1729       C  0.10100010  0.50153351  0.91777075    -0.11840
C1730       C  0.12549556  0.50359932  0.91727876     0.02100
H1731       H  0.09470077  0.92977385  0.92879190     0.15080
H1732       H  0.10345527  0.52210477  0.91415613     0.15080
C1733       C  0.15176560  0.53328306  0.90699220     0.36730
C1734       C  0.04511917  0.92111038  0.91689481     0.36640
N1735       N  0.17247379  0.55726673  0.89811524    -0.43610
N1736       N  0.02373869  0.89954260  0.90974499    -0.43610
C1737       C  0.48952354  0.85186270  0.99479058    -0.00020
C1738       C  0.46160257  0.84086203  0.99177698    -0.11900
C1739       C  0.45265491  0.85453404  0.00900548     0.02210
C1740       C  0.97196342  0.87923935  0.03100375    -0.00110
C1741       C  0.99954101  0.88865157  0.03667717    -0.11840
C1742       C  0.00853486  0.87567682  0.01705431     0.02100
H1743       H  0.44669619  0.82129520  0.97628022     0.15080
H1744       H  0.01500010  0.90865678  0.05083885     0.15080
C1745       C  0.03798869  0.88881438  0.01551254     0.36730
C1746       C  0.42445962  0.84443326  0.99901845     0.36640
N1747       N  0.06157768  0.89954330  0.01187532    -0.43610
N1748       N  0.40178839  0.83546359  0.98946590    -0.43610
C1749       C  0.51581487  0.61901194  0.94733645    -0.00020
C1750       C  0.49204435  0.61006472  0.97103963    -0.11900
C1751       C  0.49294734  0.62963782  0.99292932     0.02210
C1752       C  0.51699654  0.65951208  0.98694589    -0.00110
C1753       C  0.04002921  0.66906429  0.96019742    -0.11840
C1754       C  0.03952388  0.64882336  0.94043147     0.02100
H1755       H  0.47360368  0.58691505  0.97589779     0.15080
H1756       H  0.05788255  0.69253191  0.95317798     0.15080
C1757       C  0.06363381  0.65879063  0.91389084     0.36730
C1758       C  0.46854745  0.61878545  0.01968686     0.36640
N1759       N  0.08300214  0.66674756  0.89277843    -0.43610
N1760       N  0.44883166  0.60978611  0.04087091    -0.43610
O1761       O  0.56750345  0.04949706  0.05559330    -0.75160
O1762       O  0.55289560  0.07744570  0.04120097    -0.54070
C1763       C  0.57296044  0.07481511  0.04686519     0.78570
O1764       O  0.49348597  0.01064145  0.84597780    -0.59760
O1765       O  0.48128983  0.46369188  0.86633000    -0.52790
C1766       C  0.48605721  0.48567710  0.83727227     0.70580
O1767       O  0.51145745  0.08170258  0.91711485    -0.74320
O1768       O  0.02240448  0.08773663  0.99023677    -0.54880
C1769       C  0.01810346  0.09564028  0.95024099     0.76590
O1770       O  0.56065211  0.99581275  0.96303420    -0.59460
O1771       O  0.52376278  0.45781196  0.92999476    -0.52580
C1772       C  0.55052400  0.47496612  0.93933515     0.73180
Zr1773     Zr  0.54691769  0.01921871  0.99876576     2.54710
O1774       O  0.58867930  0.06270016  0.95497054    -0.80030
O1775       O  0.57490096  0.00687568  0.04392358    -0.93450
Zr1776     Zr  0.50569927  0.03713113  0.90829154     2.64680
O1777       O  0.55232769  0.07264880  0.87167544    -0.98400
O1778       O  0.98844934  0.05401610  0.84481727    -0.80460
O1779       O  0.53143730  0.04868926  0.97451737    -0.83820
O1780       O  0.52258146  0.00893373  0.93066051    -2.18530
O1781       O  0.97525939  0.41703330  0.05896865    -0.67210
O1782       O  0.46682650  0.41092383  0.98522391    -0.51770
C1783       C  0.46988429  0.40301032  0.02593708     0.71560
O1784       O  0.92383497  0.50721347  0.00380977    -0.60120
O1785       O  0.96105986  0.04378570  0.03857851    -0.52090
C1786       C  0.93529756  0.02963147  0.02380062     0.73360
O1787       O  0.92144655  0.44622733  0.92806932    -0.71510
O1788       O  0.93120358  0.41500395  0.94593970    -0.50190
C1789       C  0.91300769  0.42000213  0.94390731     0.74750
O1790       O  0.97899366  0.48208687  0.13317245    -0.66840
O1791       O  0.99702145  0.03130068  0.11256736    -0.54040
C1792       C  0.98707697  0.00733856  0.14130746     0.73130
Zr1793     Zr  0.97794176  0.45967019  0.07189579     2.77540
O1794       O  0.93334067  0.41855871  0.11131631    -0.97590
O1795       O  0.50387318  0.45274498  0.13196620    -0.78410
Zr1796     Zr  0.93579271  0.47765911  0.98272902     2.70070
O1797       O  0.89867125  0.43894060  0.03835988    -0.79660
O1798       O  0.89949912  0.47790511  0.94088989    -0.98740
Zr1799     Zr  0.00098376  0.03946729  0.03240942     2.21500
Zr1800     Zr  0.48238959  0.45769934  0.94650474     2.11130
O1801       O  0.95351164  0.45047483  0.00625828    -2.47430
O1802       O  0.96107512  0.48821692  0.04958624    -0.79450
O1803       O  0.50789708  0.46838577  0.01397144    -0.71650
O1804       O  0.97524754  0.02813082  0.96523549    -2.32600
O1805       O  0.51680626  0.00982119  0.05745936    -2.28810
O1806       O  0.96532518  0.48662034  0.92331528    -0.73410
H1807       H  0.53430711  0.01231219  0.90657239     0.78590
H1808       H  0.96863946  0.03981916  0.95609701     0.79680
H1809       H  0.93802542  0.43003428  0.01570991     0.81900
H1810       H  0.52503917  0.01336649  0.08653422     0.79510
H1811       H  0.96818026  0.04250639  0.85249815     0.42550
H1812       H  0.89910884  0.47271780  0.91131595     0.41520
H1813       H  0.89953920  0.44973714  0.06113705     0.41190
H1814       H  0.93864591  0.41376375  0.14155720     0.39130
H1815       H  0.52063832  0.45807341  0.11645270     0.42260
H1816       H  0.56990789  0.00457119  0.07562145     0.37040
H1817       H  0.58456506  0.07703233  0.94515095     0.43160
H1818       H  0.55114801  0.06434088  0.84498481     0.39580
H1819       H  0.92447136  0.42769555  0.11656215     0.44490
H1820       H  0.59453714  0.02539128  0.03896873     0.43220
H1821       H  0.55356622  0.09057726  0.85912553     0.43350
H1822       H  0.88147653  0.46060167  0.95662898     0.43710
O1823       O  0.96047967  0.41908945  0.44209059    -0.75160
O1824       O  0.50697294  0.45147387  0.42954490    -0.54070
C1825       C  0.48409317  0.42430522  0.43913094     0.78570
O1826       O  0.91123965  0.99301376  0.45347693    -0.59760
O1827       O  0.90957321  0.98319139  0.53053322    -0.52790
C1828       C  0.90085391  0.98807836  0.49256542     0.70580
O1829       O  0.96280967  0.99659581  0.34836247    -0.74320
O1830       O  0.50278908  0.00000737  0.35096351    -0.54880
C1831       C  0.48324899  0.99976969  0.33008402     0.76590
O1832       O  0.92007405  0.41087057  0.56813461    -0.59460
O1833       O  0.91650601  0.44283535  0.59490561    -0.52580
C1834       C  0.90971420  0.41667355  0.59549722     0.73180
Zr1835     Zr  0.95046370  0.43315394  0.50272658     2.54710
O1836       O  0.90413346  0.39471552  0.47803065    -0.80030
O1837       O  0.95238032  0.39433453  0.54606190    -0.93450
Zr1838     Zr  0.94573559  0.99090368  0.42266621     2.64680
O1839       O  0.90340471  0.44727860  0.39738523    -0.98400
O1840       O  0.94033423  0.02407251  0.36873810    -0.80460
O1841       O  0.96413238  0.46414817  0.43110962    -0.83820
O1842       O  0.93177669  0.45938837  0.49380317    -2.18530
O1843       O  0.00175005  0.48980051  0.62890871    -0.67210
O1844       O  0.96586894  0.49317033  0.62488939    -0.51770
C1845       C  0.98315661  0.48998001  0.64687449     0.71560
O1846       O  0.54095413  0.07913144  0.40583085    -0.60120
O1847       O  0.55712791  0.05345239  0.40145380    -0.52090
C1848       C  0.56050086  0.07850898  0.39613669     0.73360
O1849       O  0.00635379  0.07370115  0.53195735    -0.71510
O1850       O  0.95982357  0.03946693  0.54666904    -0.50190
C1851       C  0.98246380  0.06698485  0.53909059     0.74750
O1852       O  0.55738651  0.99946660  0.51870214    -0.66840
O1853       O  0.55406848  0.00116771  0.44238676    -0.54040
C1854       C  0.56526080  0.00009228  0.47955686     0.73130
Zr1855     Zr  0.52066151  0.99813182  0.55400777     2.77540
O1856       O  0.56232424  0.04054729  0.58274415    -0.97590
O1857       O  0.52627423  0.46400294  0.60444998    -0.78410
Zr1858     Zr  0.51421556  0.05610526  0.47434267     2.70070
O1859       O  0.56038342  0.09921337  0.49142424    -0.79660
O1860       O  0.50148138  0.08618739  0.43107300    -0.98740
Zr1861     Zr  0.51444986  0.99955266  0.42820496     2.21500
Zr1862     Zr  0.95271196  0.99145300  0.54878215     2.11130
O1863       O  0.00284963  0.02557069  0.54595521    -2.47430
O1864       O  0.53428290  0.03077920  0.48398409    -0.79450
O1865       O  0.97079547  0.46401131  0.55802474    -0.71650
O1866       O  0.49513979  0.02566983  0.41814498    -2.32600
O1867       O  0.50036748  0.46693901  0.49973523    -2.28810
O1868       O  0.96472695  0.02240771  0.47752859    -0.73410
H1869       H  0.91152103  0.44554118  0.49775179     0.78590
H1870       H  0.49977995  0.03739526  0.38835422     0.79680
H1871       H  0.00978210  0.03683600  0.57027445     0.81900
H1872       H  0.50755028  0.45568105  0.50507408     0.79510
H1873       H  0.95954061  0.04327831  0.36381412     0.42550
H1874       H  0.98071161  0.07356634  0.43332899     0.41520
H1875       H  0.57173516  0.09194744  0.49786907     0.41190
H1876       H  0.55493303  0.04590034  0.60357486     0.39130
H1877       H  0.00979993  0.44388881  0.59923618     0.42260
H1878       H  0.97263129  0.40379467  0.54905076     0.37040
H1879       H  0.90512394  0.40098502  0.44501619     0.43160
H1880       H  0.88841399  0.44002118  0.41970766     0.39580
H1881       H  0.57039534  0.03193919  0.60264900     0.44490
H1882       H  0.94546183  0.37959197  0.52603261     0.43220
H1883       H  0.89881904  0.45553674  0.36963356     0.43350
H1884       H  0.50821204  0.10223215  0.44833162     0.43710
O1885       O  0.58196377  0.27924336  0.98011625    -0.75160
O1886       O  0.55895243  0.24847993  0.92822986    -0.54070
C1887       C  0.57982892  0.26299320  0.95410076     0.78570
O1888       O  0.49575216  0.22297325  0.13473217    -0.59760
O1889       O  0.48292434  0.25337516  0.12782553    -0.52790
C1890       C  0.49005157  0.23796508  0.15121994     0.70580
O1891       O  0.00830563  0.18373742  0.03017715    -0.74320
O1892       O  0.01529940  0.19678534  0.95341741    -0.54880
C1893       C  0.01391020  0.18188181  0.99130810     0.76590
O1894       O  0.56456184  0.32291872  0.05557328    -0.59460
O1895       O  0.52588756  0.31086201  0.09031822    -0.52580
C1896       C  0.55268807  0.32547954  0.08536058     0.73180
Zr1897     Zr  0.55676162  0.29618173  0.99753976     2.54710
O1898       O  0.60090532  0.31557271  0.03492481    -0.80030
O1899       O  0.58661297  0.34300066  0.94536448    -0.93450
Zr1900     Zr  0.49738047  0.21262016  0.06005626     2.64680
O1901       O  0.53067839  0.20937466  0.10662781    -0.98400
O1902       O  0.95799102  0.16336355  0.09675866    -0.80460
O1903       O  0.53214528  0.24470371  0.00120294    -0.83820
O1904       O  0.52267043  0.26437990  0.05754462    -2.18530
O1905       O  0.99601738  0.32697578  0.95053455    -0.67210
O1906       O  0.49566772  0.31799979  0.02777094    -0.51770
C1907       C  0.99481834  0.33158507  0.98992456     0.71560
O1908       O  0.94875253  0.21095892  0.90299102    -0.60120
O1909       O  0.97057535  0.19182958  0.89927125    -0.52090
C1910       C  0.94815365  0.18984041  0.89446886     0.73360
O1911       O  0.91453403  0.22395800  0.00474463    -0.71510
O1912       O  0.94043513  0.26093492  0.04657654    -0.50190
C1913       C  0.91800053  0.24355570  0.02474670     0.74750
O1914       O  0.99559425  0.27794124  0.84848515    -0.66840
O1915       O  0.01183096  0.25102561  0.85094263    -0.54040
C1916       C  0.00098054  0.26336024  0.83037230     0.73130
Zr1917     Zr  0.00268744  0.29551039  0.91921284     2.77540
O1918       O  0.97200182  0.30334989  0.87234035    -0.97590
O1919       O  0.54362666  0.34278728  0.88024441    -0.78410
Zr1920     Zr  0.94248697  0.21170009  0.98019851     2.70070
O1921       O  0.89446834  0.18255425  0.95456159    -0.79660
O1922       O  0.91834352  0.16041528  0.01942950    -0.98740
Zr1923     Zr  0.01103775  0.23471066  0.93066698     2.21500
Zr1924     Zr  0.48825697  0.27270040  0.04824921     2.11130
O1925       O  0.96733120  0.26370763  0.97690100    -2.47430
O1926       O  0.97745448  0.24390828  0.92175116    -0.79450
O1927       O  0.52391619  0.30566713  0.98955667    -0.71650
O1928       O  0.97528428  0.20157076  0.99003487    -2.32600
O1929       O  0.53697127  0.28720543  0.92617260    -2.28810
O1930       O  0.96254743  0.22043576  0.05180738    -0.73410
H1931       H  0.53205076  0.26916377  0.08557069     0.78590
H1932       H  0.96614662  0.18098136  0.98807944     0.79680
H1933       H  0.95582725  0.27008796  0.96914696     0.81900
H1934       H  0.55087980  0.29841263  0.90157677     0.79510
H1935       H  0.95054180  0.15093558  0.07296598     0.42550
H1936       H  0.90441525  0.15691605  0.04035522     0.41520
H1937       H  0.88194605  0.17131711  0.98196584     0.41190
H1938       H  0.95922041  0.28515138  0.85870208     0.39130
H1939       H  0.54907241  0.35738170  0.89980476     0.42260
H1940       H  0.60170735  0.34277829  0.93540714     0.37040
H1941       H  0.59567632  0.30080813  0.06280930     0.43160
H1942       H  0.54389274  0.22916325  0.11590849     0.39580
H1943       H  0.95946711  0.30203332  0.89351375     0.44490
H1944       H  0.59608997  0.35852123  0.96469044     0.43220
H1945       H  0.51974467  0.19548936  0.13454284     0.43350
H1946       H  0.90699210  0.14762202  0.99665152     0.43710
O1947       O  0.56065475  0.25348521  0.55616326    -0.75160
O1948       O  0.56344382  0.25334019  0.48134831    -0.54070
C1949       C  0.57246365  0.25460945  0.52131032     0.78570
O1950       O  0.92099178  0.16822212  0.56478187    -0.59760
O1951       O  0.90743339  0.19652216  0.54598806    -0.52790
C1952       C  0.90226125  0.17087701  0.55080601     0.70580
O1953       O  0.97152376  0.16955648  0.46235200    -0.74320
O1954       O  0.51842808  0.20185065  0.46097541    -0.54880
C1955       C  0.49519949  0.17476490  0.46594126     0.76590
O1956       O  0.99722501  0.24834514  0.63643485    -0.59460
O1957       O  0.95805890  0.24610319  0.62170242    -0.52580
C1958       C  0.97642259  0.24700642  0.64815172     0.73180
Zr1959     Zr  0.51886435  0.24948752  0.57168660     2.54710
O1960       O  0.51321474  0.20946984  0.62706577    -0.80030
O1961       O  0.55712676  0.28818950  0.61111752    -0.93450
Zr1962     Zr  0.95681868  0.18655191  0.51007484     2.64680
O1963       O  0.95778546  0.15028065  0.56453877    -0.98400
O1964       O  0.91774401  0.14595896  0.47480259    -0.80460
O1965       O  0.50589912  0.21862728  0.51781043    -0.83820
O1966       O  0.96967040  0.21695185  0.56530249    -2.18530
O1967       O  0.00609637  0.33101836  0.51521149    -0.67210
O1968       O  0.95948360  0.29450339  0.53045092    -0.51770
C1969       C  0.98116496  0.32243260  0.52001188     0.71560
O1970       O  0.98173976  0.24861619  0.35031061    -0.60120
O1971       O  0.51949671  0.24832732  0.36630209    -0.52090
C1972       C  0.50160114  0.24808237  0.33926831     0.73360
O1973       O  0.91635437  0.23867234  0.43714512    -0.71510
O1974       O  0.91390414  0.24049936  0.51141646    -0.50190
C1975       C  0.90413923  0.23710606  0.47211146     0.74750
O1976       O  0.55343447  0.32344321  0.41803030    -0.66840
O1977       O  0.57249272  0.30063128  0.43075346    -0.54040
C1978       C  0.57483797  0.32461421  0.42849062     0.73130
Zr1979     Zr  0.52301217  0.31076207  0.47918308     2.77540
O1980       O  0.53104013  0.35407301  0.42971995    -0.97590
O1981       O  0.56233979  0.34338990  0.52369711    -0.78410
Zr1982     Zr  0.96044251  0.24767606  0.41644940     2.70070
O1983       O  0.96555159  0.28880401  0.36511979    -0.79660
O1984       O  0.92384717  0.21154743  0.37198518    -0.98740
Zr1985     Zr  0.52561780  0.25055043  0.44662025     2.21500
Zr1986     Zr  0.95403741  0.24681130  0.54091243     2.11130
O1987       O  0.97404242  0.27881442  0.46964567    -2.47430
O1988       O  0.50992562  0.28047631  0.42363726    -0.79450
O1989       O  0.00346293  0.27934398  0.54977991    -0.71650
O1990       O  0.97582094  0.21809368  0.43887055    -2.32600
O1991       O  0.53820396  0.28117627  0.50240761    -2.28810
O1992       O  0.94127447  0.21584348  0.48627723    -0.73410
H1993       H  0.96181521  0.20517337  0.59483560     0.78590
H1994       H  0.97088826  0.20649411  0.41553529     0.79680
H1995       H  0.96714556  0.29007155  0.45870917     0.81900
H1996       H  0.55801879  0.29385771  0.50733612     0.79510
H1997       H  0.91848017  0.15536697  0.44345262     0.42550
H1998       H  0.91136588  0.19332206  0.39443305     0.41520
H1999       H  0.98578881  0.30580827  0.36531522     0.41190
H2000       H  0.01213940  0.34890162  0.42491097     0.39130
H2001       H  0.55452771  0.33612832  0.55502414     0.42260
H2002       H  0.57241052  0.30239238  0.58787718     0.37040
H2003       H  0.51575879  0.19835915  0.60946178     0.43160
H2004       H  0.97786763  0.15872617  0.56583354     0.39580
H2005       H  0.54051732  0.37008033  0.44816026     0.44490
H2006       H  0.56404538  0.27831849  0.63101162     0.43220
H2007       H  0.94888512  0.13279029  0.54942599     0.43350
H2008       H  0.91265487  0.21869569  0.36163145     0.43710
O2009       O  0.67251519  0.43031401  0.07318897    -0.75160
O2010       O  0.65593203  0.42009473  0.00302759    -0.54070
C2011       C  0.65292980  0.41562073  0.04653860     0.78570
O2012       O  0.74091641  0.06869359  0.02968725    -0.59760
O2013       O  0.78537241  0.08410332  0.04645308    -0.52790
C2014       C  0.76463319  0.08567108  0.04735907     0.70580
O2015       O  0.67003018  0.00375507  0.95658116    -0.74320
O2016       O  0.65470192  0.46100761  0.93150670    -0.54880
C2017       C  0.65093157  0.48020070  0.93795211     0.76590
O2018       O  0.74854219  0.49689663  0.13124931    -0.59460
O2019       O  0.79006437  0.04281734  0.10594528    -0.52580
C2020       C  0.77153683  0.02256415  0.13726588     0.73180
Zr2021     Zr  0.72203905  0.46937517  0.07061107     2.54710
O2022       O  0.69588095  0.45697086  0.13930389    -0.80030
O2023       O  0.72774279  0.43176738  0.10528227    -0.93450
Zr2024     Zr  0.71728555  0.02921384  0.98676555     2.64680
O2025       O  0.68037505  0.02006139  0.03210056    -0.98400
O2026       O  0.72484690  0.07107831  0.93376845    -0.80460
O2027       O  0.69653470  0.47715498  0.01336238    -0.83820
O2028       O  0.74115160  0.02075457  0.04669814    -2.18530
O2029       O  0.81830161  0.00594813  0.00208552    -0.67210
O2030       O  0.83086174  0.04506616  0.03451548    -0.51770
C2031       C  0.83653217  0.02881353  0.02109840     0.71560
O2032       O  0.73909821  0.00797863  0.84251790    -0.60120
O2033       O  0.69610821  0.46314686  0.86573513    -0.52090
C2034       C  0.71521070  0.48347039  0.83495892     0.73360
O2035       O  0.81534314  0.07966896  0.90170548    -0.71510
O2036       O  0.82902499  0.08790670  0.97369667    -0.50190
C2037       C  0.83372855  0.09375497  0.93068041     0.74750
O2038       O  0.74489409  0.44914201  0.91898156    -0.66840
O2039       O  0.69816601  0.42016389  0.93334699    -0.54040
C2040       C  0.72050157  0.42376998  0.92223648     0.73130
Zr2041     Zr  0.76825040  0.47586658  0.98184706     2.77540
O2042       O  0.79454797  0.46477072  0.94527374    -0.97590
O2043       O  0.75744089  0.43263194  0.03536925    -0.78410
Zr2044     Zr  0.76604232  0.03662826  0.90163023     2.70070
O2045       O  0.79440519  0.04580205  0.83841980    -0.79660
O2046       O  0.76010621  0.07325706  0.86212587    -0.98740
Zr2047     Zr  0.69564381  0.45905936  0.94841380     2.21500
Zr2048     Zr  0.78928617  0.04648572  0.02373364     2.11130
O2049       O  0.78958112  0.02702766  0.96025386    -2.47430
O2050       O  0.74391422  0.48532419  0.92450915    -0.79450
O2051       O  0.76905664  0.49443159  0.04646484    -0.71650
O2052       O  0.71841323  0.01180558  0.92336346    -2.32600
O2053       O  0.72064856  0.44954851  0.00755286    -2.28810
O2054       O  0.76528466  0.05581019  0.96357893    -0.73410
H2055       H  0.73988104  0.02758596  0.07243576     0.78590
H2056       H  0.70877156  0.01503297  0.89877770     0.79680
H2057       H  0.80843302  0.03638769  0.94962224     0.81900
H2058       H  0.71129916  0.42839130  0.01610814     0.79510
H2059       H  0.74421419  0.08852621  0.93865466     0.42550
H2060       H  0.77595373  0.09227471  0.87154978     0.41520
H2061       H  0.79986779  0.03261052  0.84820751     0.41190
H2062       H  0.80935621  0.98183422  0.93047518     0.39130
H2063       H  0.77424604  0.44068595  0.05391427     0.42260
H2064       H  0.71035074  0.41656188  0.12424036     0.37040
H2065       H  0.69055915  0.47043082  0.13434030     0.43160
H2066       H  0.68274491  0.01254680  0.06290165     0.39580
H2067       H  0.80334157  0.45935365  0.96984069     0.44490
H2068       H  0.74269715  0.44157513  0.12707827     0.43220
H2069       H  0.68578939  0.04000489  0.03307976     0.43350
H2070       H  0.76476816  0.07567341  0.83017457     0.43710
O2071       O  0.75441343  0.06896952  0.54699757    -0.75160
O2072       O  0.70715868  0.03451429  0.55820968    -0.54070
C2073       C  0.73063615  0.06117841  0.55861751     0.78570
O2074       O  0.73704561  0.01733118  0.33605457    -0.59760
O2075       O  0.77711361  0.02161267  0.35253426    -0.52790
C2076       C  0.75986585  0.02183491  0.32460828     0.70580
O2077       O  0.67340688  0.50838085  0.42757221    -0.74320
O2078       O  0.66597324  0.49828190  0.50425654    -0.54880
C2079       C  0.66122452  0.50519022  0.46384694     0.76590
O2080       O  0.80575623  0.08399788  0.43211301    -0.59460
O2081       O  0.82127390  0.05734067  0.44094923    -0.52580
C2082       C  0.82519762  0.08186267  0.44213982     0.73180
Zr2083     Zr  0.76754754  0.05865755  0.48566588     2.54710
O2084       O  0.75789460  0.09108549  0.44045465    -0.80030
O2085       O  0.80724359  0.10155244  0.51677524    -0.93450
Zr2086     Zr  0.71103512  0.50703940  0.40575433     2.64680
O2087       O  0.71567343  0.04907099  0.35850089    -0.98400
O2088       O  0.67263632  0.47145483  0.36256495    -0.80460
O2089       O  0.71950948  0.02762655  0.47207658    -0.83820
O2090       O  0.75934321  0.03843238  0.41917114    -2.18530
O2091       O  0.80259057  0.49465731  0.54159953    -0.67210
O2092       O  0.81105852  0.50636229  0.46515481    -0.51770
C2093       C  0.81656985  0.50079242  0.50564946     0.71560
O2094       O  0.67370273  0.41945328  0.54475302    -0.60120
O2095       O  0.65128902  0.43842546  0.54070149    -0.52090
C2096       C  0.65110835  0.41635533  0.53750524     0.73360
O2097       O  0.72660211  0.42470202  0.44192640    -0.71510
O2098       O  0.76930187  0.46564754  0.41093785    -0.50190
C2099       C  0.74928857  0.43704738  0.41899989     0.74750
O2100       O  0.73769457  0.48143090  0.63210856    -0.66840
O2101       O  0.69806877  0.47837539  0.61831392    -0.54040
C2102       C  0.71597717  0.47840719  0.64489730     0.73130
Zr2103     Zr  0.76084829  0.48918321  0.56142431     2.77540
O2104       O  0.75224939  0.44414581  0.60507625    -0.97590
O2105       O  0.79837260  0.02199905  0.60832290    -0.78410
Zr2106     Zr  0.70363419  0.43834847  0.47953464     2.70070
O2107       O  0.68870245  0.38795660  0.50556804    -0.79660
O2108       O  0.66649219  0.41438121  0.42665206    -0.98740
Zr2109     Zr  0.69743340  0.48889392  0.53655288     2.21500
Zr2110     Zr  0.77522683  0.50854715  0.43359176     2.11130
O2111       O  0.75174079  0.46817963  0.49560806    -2.47430
O2112       O  0.71236400  0.45800403  0.54720223    -0.79450
O2113       O  0.78368147  0.02940492  0.49977782    -0.71650
O2114       O  0.68795097  0.46803695  0.46841941    -2.32600
O2115       O  0.74636819  0.01958113  0.54952594    -2.28810
O2116       O  0.72671196  0.47736855  0.41711114    -0.73410
H2117       H  0.76818509  0.05330248  0.39224436     0.78590
H2118       H  0.66825914  0.45621829  0.46212556     0.79680
H2119       H  0.75852009  0.45652356  0.49941524     0.81900
H2120       H  0.74999097  0.02702749  0.57732659     0.79510
H2121       H  0.65541074  0.46145474  0.38152679     0.42550
H2122       H  0.67619649  0.42435221  0.39660793     0.41520
H2123       H  0.70044577  0.38977062  0.53165237     0.41190
H2124       H  0.75413433  0.43477800  0.58287363     0.39130
H2125       H  0.80576253  0.04237195  0.59296038     0.42260
H2126       H  0.80662375  0.09449606  0.54944708     0.37040
H2127       H  0.73819832  0.08205781  0.44841656     0.43160
H2128       H  0.73610704  0.06431236  0.35136243     0.39580
H2129       H  0.76898840  0.45152487  0.62362188     0.44490
H2130       H  0.80305344  0.11586152  0.51441855     0.43220
H2131       H  0.70739857  0.04204097  0.32976234     0.43350
H2132       H  0.66102470  0.39404274  0.43012115     0.43710
O2133       O  0.75012361  0.18593795  0.08793518    -0.75160
O2134       O  0.75993712  0.18566718  0.01649548    -0.54070
C2135       C  0.75723855  0.17689613  0.05949603     0.78570
O2136       O  0.66829620  0.24002240  0.98763687    -0.59760
O2137       O  0.69458019  0.27893533  0.02579770    -0.52790
C2138       C  0.67254076  0.26111223  0.00404403     0.70580
O2139       O  0.68675567  0.18675065  0.94190688    -0.74320
O2140       O  0.70815749  0.16876444  0.97396663    -0.54880
C2141       C  0.68496074  0.16475851  0.96317472     0.76590
O2142       O  0.73642419  0.24497618  0.14547525    -0.59460
O2143       O  0.73761231  0.28539632  0.11592183    -0.52580
C2144       C  0.73616147  0.26677554  0.14916851     0.73180
Zr2145     Zr  0.74111433  0.22342943  0.08736909     2.54710
O2146       O  0.69980619  0.17876305  0.13021442    -0.80030
O2147       O  0.77271465  0.22965818  0.14796326    -0.93450
Zr2148     Zr  0.69160834  0.21863959  0.98857668     2.64680
O2149       O  0.65541553  0.17878274  0.04475873    -0.98400
O2150       O  0.65524936  0.21007717  0.93617747    -0.80460
O2151       O  0.71856554  0.20290855  0.02212664    -0.83820
O2152       O  0.71225123  0.23769508  0.05615045    -2.18530
O2153       O  0.80322654  0.32006782  0.06137218    -0.67210
O2154       O  0.78421425  0.34199683  0.03920802    -0.51770
C2155       C  0.80651201  0.34404116  0.04559427     0.71560
O2156       O  0.76141581  0.26811876  0.85590056    -0.60120
O2157       O  0.75767992  0.22587552  0.88516850    -0.52090
C2158       C  0.76027599  0.24539038  0.85195843     0.73360
O2159       O  0.74158154  0.32305391  0.91734990    -0.71510
O2160       O  0.73949231  0.32762221  0.98992504    -0.50190
C2161       C  0.73726667  0.33354447  0.94769613     0.74750
O2162       O  0.83032070  0.27472089  0.00766891    -0.66840
O2163       O  0.80333218  0.23364548  0.97380964    -0.54040
C2164       C  0.82627521  0.25306298  0.99309308     0.73130
Zr2165     Zr  0.80532995  0.29441888  0.00939889     2.77540
O2166       O  0.83640452  0.33146492  0.94590302    -0.97590
O2167       O  0.84833195  0.31522760  0.04987961    -0.78410
Zr2168     Zr  0.75554606  0.28964430  0.91326171     2.70070
O2169       O  0.79721476  0.33596595  0.87392434    -0.79660
O2170       O  0.72622110  0.28512585  0.84980073    -0.98740
Zr2171     Zr  0.75474463  0.22046719  0.96760113     2.21500
Zr2172     Zr  0.74192186  0.29087150  0.03444460     2.11130
O2173       O  0.77800969  0.30984213  0.97781468    -2.47430
O2174       O  0.78339125  0.27381961  0.94409050    -0.79450
O2175       O  0.77059991  0.27637373  0.06593508    -0.71650
O2176       O  0.72754728  0.23712623  0.93415633    -2.32600
O2177       O  0.77650785  0.24225672  0.03282141    -2.28810
O2178       O  0.72046359  0.27072017  0.96848481    -0.73410
H2179       H  0.69789473  0.23132482  0.07793537     0.78590
H2180       H  0.72005975  0.23087430  0.90561686     0.79680
H2181       H  0.78925401  0.33109494  0.96798136     0.81900
H2182       H  0.78754128  0.23637728  0.04751606     0.79510
H2183       H  0.66525357  0.21994018  0.90632254     0.42550
H2184       H  0.70854355  0.27875174  0.86358395     0.41520
H2185       H  0.80693260  0.32976616  0.86073448     0.41190
H2186       H  0.83329555  0.34664667  0.94078331     0.39130
H2187       H  0.84209830  0.31027854  0.08177373     0.42260
H2188       H  0.78915238  0.23384466  0.13317612     0.37040
H2189       H  0.69565126  0.16212107  0.11682646     0.43160
H2190       H  0.66518069  0.17320418  0.06670246     0.39580
H2191       H  0.85566578  0.34141350  0.95695498     0.44490
H2192       H  0.76314206  0.20943722  0.16612814     0.43220
H2193       H  0.65056023  0.18852756  0.06119209     0.43350
H2194       H  0.73534560  0.30590807  0.83431266     0.43710
O2195       O  0.67686209  0.17671938  0.43716417    -0.75160
O2196       O  0.67322548  0.21390859  0.40966208    -0.54070
C2197       C  0.66599897  0.18727046  0.41150999     0.78570
O2198       O  0.72849235  0.23463237  0.64703574    -0.59760
O2199       O  0.76644765  0.23534509  0.63995864    -0.52790
C2200       C  0.74888560  0.23437484  0.66341336     0.70580
O2201       O  0.67298751  0.24411213  0.54945198    -0.74320
O2202       O  0.67266796  0.25322400  0.47274312    -0.54880
C2203       C  0.66364586  0.24956825  0.51239886     0.76590
O2204       O  0.72003524  0.16163591  0.54407241    -0.59460
O2205       O  0.76191832  0.19234540  0.57672725    -0.52580
C2206       C  0.74098139  0.16660629  0.56685052     0.73180
Zr2207     Zr  0.70915405  0.19142861  0.49635566     2.54710
O2208       O  0.66365974  0.15163685  0.53463621    -0.80030
O2209       O  0.71212345  0.15921796  0.45967243    -0.93450
Zr2210     Zr  0.70816921  0.23722020  0.57368529     2.64680
O2211       O  0.66675274  0.18837581  0.60762244    -0.98400
O2212       O  0.70366832  0.26239892  0.62436646    -0.80460
O2213       O  0.69212023  0.21791082  0.50531167    -0.83820
O2214       O  0.72386155  0.20941212  0.56518077    -2.18530
O2215       O  0.80894632  0.25450030  0.45006117    -0.67210
O2216       O  0.81194026  0.24655521  0.52640302    -0.51770
C2217       C  0.81917597  0.24924938  0.48564766     0.71560
O2218       O  0.76561288  0.33943575  0.45976311    -0.60120
O2219       O  0.72681634  0.31068362  0.41980260    -0.52090
C2220       C  0.74754383  0.33627197  0.43086759     0.73360
O2221       O  0.79463897  0.31189485  0.58456989    -0.71510
O2222       O  0.81225800  0.28646557  0.59168224    -0.50190
C2223       C  0.81296139  0.30818722  0.59950992     0.74750
O2224       O  0.76025988  0.27282219  0.35516551    -0.66840
O2225       O  0.72013309  0.26805237  0.36169914    -0.54040
C2226       C  0.73955936  0.27218233  0.33827685     0.73130
Zr2227     Zr  0.77727173  0.26588287  0.42917292     2.77540
O2228       O  0.81978364  0.31553131  0.40097918    -0.97590
O2229       O  0.78344361  0.24494172  0.37292153    -0.78410
Zr2230     Zr  0.77673491  0.31039172  0.50955184     2.70070
O2231       O  0.82567295  0.34981275  0.48458114    -0.79660
O2232       O  0.77814410  0.34755435  0.53976477    -0.98740
Zr2233     Zr  0.71174574  0.25865559  0.44294710     2.21500
Zr2234     Zr  0.77402593  0.24286788  0.55891672     2.11130
O2235       O  0.79413456  0.28466594  0.49782300    -2.47430
O2236       O  0.76182941  0.29323957  0.43959249    -0.79450
O2237       O  0.75864784  0.22470547  0.48959078    -0.71650
O2238       O  0.72703924  0.27796333  0.51229968    -2.32600
O2239       O  0.72801817  0.23122745  0.43399219    -2.28810
O2240       O  0.75745424  0.26980633  0.56929299    -0.73410
H2241       H  0.71718226  0.19339999  0.59055504     0.78590
H2242       H  0.72092085  0.28965790  0.51530520     0.79680
H2243       H  0.81443957  0.29732373  0.49782253     0.81900
H2244       H  0.72222243  0.22343677  0.40619290     0.79510
H2245       H  0.72048852  0.28352811  0.61688478     0.42550
H2246       H  0.76209064  0.33573372  0.56198119     0.41520
H2247       H  0.82520635  0.35349972  0.45135146     0.41190
H2248       H  0.83514957  0.31683519  0.41811062     0.39130
H2249       H  0.76737094  0.22339912  0.37902803     0.42260
H2250       H  0.71906770  0.17013992  0.42853449     0.37040
H2251       H  0.65082982  0.15619611  0.52167249     0.43160
H2252       H  0.67422082  0.18021642  0.63024818     0.39580
H2253       H  0.82291301  0.31456222  0.37000147     0.44490
H2254       H  0.69239460  0.14171394  0.45686309     0.43220
H2255       H  0.65720972  0.19281166  0.62566578     0.43350
H2256       H  0.79498674  0.35700989  0.55817324     0.43710
C2257       C  0.75315194  0.23458178  0.71263515    -0.00020
C2258       C  0.77811806  0.25942487  0.72693770    -0.11900
C2259       C  0.78141336  0.26280446  0.77246842     0.02210
C2260       C  0.75988196  0.24058993  0.80506525    -0.00110
C2261       C  0.73558574  0.21495637  0.79109267    -0.11840
C2262       C  0.73191336  0.21202635  0.74534558     0.02100
H2263       H  0.79455555  0.27696781  0.70214378     0.15080
H2264       H  0.71876197  0.19787472  0.81567168     0.15080
C2265       C  0.70603063  0.18584252  0.73265290     0.36730
C2266       C  0.80688817  0.28950190  0.78488294     0.36640
N2267       N  0.68527994  0.16481811  0.72253235    -0.43610
N2268       N  0.82731899  0.31090968  0.79481595    -0.43610
C2269       C  0.73511165  0.27100942  0.19563940    -0.00020
C2270       C  0.75978632  0.29429485  0.21299321    -0.11900
C2271       C  0.76122327  0.29610509  0.25895770     0.02210
C2272       C  0.73747449  0.27460811  0.28843973    -0.00110
C2273       C  0.71221907  0.25250127  0.27035120    -0.11840
C2274       C  0.71099181  0.25037254  0.22450840     0.02100
H2275       H  0.77840129  0.31030338  0.19099510     0.15080
H2276       H  0.69385635  0.23579526  0.29255231     0.15080
C2277       C  0.68498483  0.22641819  0.20792853     0.36730
C2278       C  0.78742992  0.32002721  0.27519685     0.36640
N2279       N  0.66415353  0.20727929  0.19448955    -0.43610
N2280       N  0.80842582  0.33924764  0.28815365    -0.43610
C2281       C  0.75190453  0.41531390  0.40468893    -0.00020
C2282       C  0.77661687  0.41817608  0.41275985    -0.11900
C2283       C  0.77647076  0.39338659  0.41590029     0.02210
C2284       C  0.75087542  0.36452689  0.41243531    -0.00110
C2285       C  0.72736701  0.36294824  0.39787943    -0.11840
C2286       C  0.72772508  0.38790731  0.39360226     0.02100
H2287       H  0.79557700  0.43915674  0.42007379     0.15080
H2288       H  0.70809067  0.34179785  0.39257516     0.15080
C2289       C  0.70242453  0.38435645  0.37964613     0.36730
C2290       C  0.80295852  0.39838222  0.42385927     0.36640
N2291       N  0.68212106  0.38134497  0.36812026    -0.43610
N2292       N  0.82436524  0.40276352  0.42989427    -0.43610
C2293       C  0.73260184  0.08720531  0.56659670    -0.00020
C2294       C  0.75030482  0.11359435  0.53536229    -0.11900
C2295       C  0.75483364  0.13997621  0.53783562     0.02210
C2296       C  0.74244138  0.14148242  0.57342240    -0.00110
C2297       C  0.72477923  0.11533591  0.60558893    -0.11840
C2298       C  0.71998023  0.08825890  0.60260329     0.02100
H2299       H  0.75999029  0.11342259  0.50703970     0.15080
H2300       H  0.71395221  0.11576589  0.63188578     0.15080
C2301       C  0.70251108  0.06227705  0.63656986     0.36730
C2302       C  0.76909425  0.16383775  0.49950455     0.36640
N2303       N  0.68863147  0.04144554  0.66399314    -0.43610
N2304       N  0.77965895  0.18213247  0.46776238    -0.43610
C2305       C  0.71134114  0.47997726  0.78636081    -0.00020
C2306       C  0.72590340  0.00648142  0.75378931    -0.11900
C2307       C  0.72726588  0.00590619  0.70818463     0.02210
C2308       C  0.71332161  0.47844381  0.69324825    -0.00110
C2309       C  0.69800180  0.45180090  0.72486646    -0.11840
C2310       C  0.69702704  0.45235068  0.77121591     0.02100
H2311       H  0.73707435  0.02800027  0.76424327     0.15080
H2312       H  0.68744832  0.43065072  0.71354884     0.15080
C2313       C  0.68261971  0.42451953  0.80251073     0.36730
C2314       C  0.74426497  0.03404355  0.67767858     0.36640
N2315       N  0.67110263  0.40217830  0.82758114    -0.43610
N2316       N  0.75822493  0.05673829  0.65374149    -0.43610
C2317       C  0.77531293  0.02804752  0.18414069    -0.00020
C2318       C  0.76761067  0.04472211  0.19603918    -0.11900
C2319       C  0.76297084  0.04369402  0.24143462     0.02210
C2320       C  0.76635559  0.02593907  0.27597622    -0.00110
C2321       C  0.77550066  0.51033559  0.26409164    -0.11840
C2322       C  0.77957127  0.01113004  0.21858370     0.02100
H2323       H  0.76366876  0.05726781  0.16968561     0.15080
H2324       H  0.77824830  0.49664665  0.29016069     0.15080
C2325       C  0.78663755  0.49258811  0.20850363     0.36730
C2326       C  0.75486230  0.06112206  0.25138768     0.36640
N2327       N  0.79228729  0.47794277  0.20019297    -0.43610
N2328       N  0.74853079  0.07539277  0.25867239    -0.43610
C2329       C  0.72871079  0.35363731  0.93553997    -0.00020
C2330       C  0.73916106  0.37498117  0.89565769    -0.11900
C2331       C  0.73536676  0.39734950  0.88843489     0.02210
C2332       C  0.71924422  0.39741124  0.91987046    -0.00110
C2333       C  0.70665761  0.37460715  0.95702061    -0.11840
C2334       C  0.71219364  0.35400131  0.96641079     0.02100
H2335       H  0.75200603  0.37559359  0.87175752     0.15080
H2336       H  0.69486700  0.37490363  0.98187693     0.15080
C2337       C  0.70236098  0.33584371  0.01064588     0.36730
C2338       C  0.74882071  0.42050142  0.84928615     0.36640
N2339       N  0.69448115  0.32282053  0.04700657    -0.43610
N2340       N  0.75961171  0.43912812  0.81793928    -0.43610
C2341       C  0.76203689  0.15407963  0.07564967    -0.00020
C2342       C  0.73895817  0.12411379  0.08751757    -0.11900
C2343       C  0.74133878  0.10141674  0.08648793     0.02210
C2344       C  0.76625300  0.10833603  0.06834968    -0.00110
C2345       C  0.79031972  0.13815944  0.06309407    -0.11840
C2346       C  0.78846980  0.16055716  0.06968955     0.02100
H2347       H  0.71891099  0.11839717  0.09647848     0.15080
H2348       H  0.81044744  0.14397294  0.05436448     0.15080
C2349       C  0.81313378  0.18662366  0.08389837     0.36730
C2350       C  0.71812366  0.07125312  0.10538151     0.36640
N2351       N  0.83248692  0.20532364  0.10041767    -0.43610
N2352       N  0.69967678  0.04741027  0.12214777    -0.43610
C2353       C  0.84860095  0.10544409  0.46605602    -0.00020
C2354       C  0.85425034  0.09668592  0.50932873    -0.11900
C2355       C  0.86923435  0.11697426  0.53943885     0.02210
C2356       C  0.87920467  0.14698433  0.52656662    -0.00110
C2357       C  0.87312066  0.15552418  0.48354990    -0.11840
C2358       C  0.85827826  0.13532808  0.45342103     0.02100
H2359       H  0.84562101  0.07350954  0.52061677     0.15080
H2360       H  0.88117402  0.17845417  0.47238025     0.15080
C2361       C  0.85271704  0.14570319  0.40978699     0.36730
C2362       C  0.87415766  0.10639795  0.58345750     0.36640
N2363       N  0.84821946  0.15402969  0.37490250    -0.43610
N2364       N  0.87812742  0.09788341  0.61868463    -0.43610
C2365       C  0.59763552  0.34984261  0.45193439    -0.00020
C2366       C  0.60998605  0.34400145  0.48950273    -0.11900
C2367       C  0.62492729  0.36406124  0.52010216     0.02210
C2368       C  0.62910135  0.39157936  0.51289870    -0.00110
C2369       C  0.61711256  0.39766146  0.47503781    -0.11840
C2370       C  0.60229476  0.37765954  0.44426385     0.02100
H2371       H  0.60669232  0.32292125  0.49656968     0.15080
H2372       H  0.62045167  0.41876079  0.46803725     0.15080
C2373       C  0.59310109  0.38689247  0.40394176     0.36730
C2374       C  0.63473367  0.35518237  0.55997597     0.36640
N2375       N  0.58599612  0.39452910  0.37149452    -0.43610
N2376       N  0.64249206  0.34796580  0.59195449    -0.43610
C2377       C  0.87759547  0.23281888  0.46814581    -0.00020
C2378       C  0.87606654  0.25178716  0.43416442    -0.11900
C2379       C  0.85705550  0.25748326  0.43868945     0.02210
C2380       C  0.83958036  0.24425404  0.47841015    -0.00110
C2381       C  0.83952637  0.22331091  0.51023008    -0.11840
C2382       C  0.85769814  0.21683981  0.50488573     0.02100
H2383       H  0.89123204  0.26403105  0.40589935     0.15080
H2384       H  0.82495883  0.21163463  0.53928219     0.15080
C2385       C  0.85564584  0.19422250  0.53869261     0.36730
C2386       C  0.85720566  0.27812105  0.40302113     0.36640
N2387       N  0.85268975  0.17571417  0.56666158    -0.43610
N2388       N  0.85737497  0.29444338  0.37392640    -0.43610
C2389       C  0.64151670  0.25286695  0.51616562    -0.00020
C2390       C  0.62525848  0.24043074  0.55673270    -0.11900
C2391       C  0.60350603  0.24229127  0.56120903     0.02210
C2392       C  0.59854391  0.25770709  0.52513095    -0.00110
C2393       C  0.61650363  0.27245973  0.48653932    -0.11840
C2394       C  0.63692280  0.26917658  0.48084206     0.02100
H2395       H  0.62867022  0.22806740  0.58435657     0.15080
H2396       H  0.61313803  0.28489084  0.45887465     0.15080
C2397       C  0.65111641  0.28117500  0.43705233     0.36730
C2398       C  0.58570405  0.22668601  0.60168926     0.36640
N2399       N  0.66153362  0.28992034  0.40132847    -0.43610
N2400       N  0.57152127  0.21413464  0.63424093    -0.43610
C2401       C  0.99213671  0.25861284  0.78379196    -0.00020
C2402       C  0.98337977  0.23184735  0.77167392    -0.11900
C2403       C  0.97482672  0.22602875  0.72826517     0.02210
C2404       C  0.97496594  0.24720501  0.69600799    -0.00110
C2405       C  0.98177585  0.27296573  0.70859725    -0.11840
C2406       C  0.99033912  0.27887665  0.75217466     0.02100
H2407       H  0.98344275  0.21547256  0.79603565     0.15080
H2408       H  0.98245542  0.28953735  0.68344525     0.15080
C2409       C  0.99884281  0.30675602  0.76229569     0.36730
C2410       C  0.96702275  0.19868120  0.71687940     0.36640
N2411       N  0.00561458  0.32910457  0.77030646    -0.43610
N2412       N  0.96074656  0.17679437  0.70769397    -0.43610
C2413       C  0.50295737  0.24663434  0.29151509    -0.00020
C2414       C  0.99126082  0.21900897  0.27911336    -0.11900
C2415       C  0.98687209  0.21544698  0.23369051     0.02210
C2416       C  0.49407339  0.23982803  0.19994070    -0.00110
C2417       C  0.50657470  0.26765395  0.21253450    -0.11840
C2418       C  0.51102351  0.27118443  0.25771263     0.02100
H2419       H  0.98439841  0.19987506  0.30515674     0.15080
H2420       H  0.51294049  0.28682571  0.18691912     0.15080
C2421       C  0.52368192  0.30017702  0.26877730     0.36730
C2422       C  0.97341799  0.18620851  0.22303944     0.36640
N2423       N  0.53392839  0.32340880  0.27771348    -0.43610
N2424       N  0.96253555  0.16273665  0.21451932    -0.43610
C2425       C  0.92004751  0.16223738  0.88776056    -0.00020
C2426       C  0.89936681  0.16542756  0.87086277    -0.11900
C2427       C  0.87087406  0.14293194  0.88318041     0.02210
C2428       C  0.86288862  0.11693539  0.91312405    -0.00110
C2429       C  0.88288794  0.11197288  0.92460840    -0.11840
C2430       C  0.91125248  0.13409535  0.91082316     0.02100
H2431       H  0.90574259  0.18671175  0.85182773     0.15080
H2432       H  0.87637035  0.09096809  0.94487901     0.15080
C2433       C  0.93085833  0.12760340  0.92100115     0.36730
C2434       C  0.85069599  0.14820617  0.86828176     0.36640
N2435       N  0.94654414  0.12221400  0.92747994    -0.43610
N2436       N  0.83452447  0.15244410  0.85640427    -0.43610
C2437       C  0.57301437  0.34744994  0.11383146    -0.00020
C2438       C  0.59548878  0.34607628  0.12378630    -0.11900
C2439       C  0.62109304  0.36717353  0.09888687     0.02210
C2440       C  0.62538924  0.39204922  0.06991827    -0.00110
C2441       C  0.60616389  0.39785313  0.07387260    -0.11840
C2442       C  0.58063245  0.37600838  0.09887586     0.02100
H2443       H  0.59092402  0.32519248  0.14095120     0.15080
H2444       H  0.61147215  0.41942904  0.05912057     0.15080
C2445       C  0.56275599  0.38276009  0.11066614     0.36730
C2446       C  0.64186392  0.36205561  0.10156723     0.36640
N2447       N  0.54845771  0.38808696  0.12093582    -0.43610
N2448       N  0.65847591  0.35793692  0.10342609    -0.43610
C2449       C  0.89557793  0.24764015  0.01595150    -0.00020
C2450       C  0.88948980  0.25856525  0.04645933    -0.11900
C2451       C  0.86735224  0.26068517  0.03946755     0.02210
C2452       C  0.84997498  0.25097930  0.00142164    -0.00110
C2453       C  0.85698004  0.24142586  0.96987367    -0.11840
C2454       C  0.87995806  0.24074996  0.97578167     0.02100
H2455       H  0.90147493  0.26461114  0.07665172     0.15080
H2456       H  0.84520868  0.23568069  0.93943400     0.15080
C2457       C  0.88833852  0.23546965  0.93776710     0.36730
C2458       C  0.86127261  0.26955830  0.07541394     0.36640
N2459       N  0.89512128  0.23182190  0.90670206    -0.43610
N2460       N  0.85665418  0.27567082  0.10589587    -0.43610
C2461       C  0.60218135  0.25941504  0.96017414    -0.00020
C2462       C  0.60002304  0.24094992  0.00001713    -0.11900
C2463       C  0.62348456  0.24312737  0.01708124     0.02210
C2464       C  0.64999415  0.26427884  0.99450550    -0.00110
C2465       C  0.65206883  0.28224912  0.95398663    -0.11840
C2466       C  0.62863965  0.28048112  0.93735069     0.02100
H2467       H  0.58007085  0.22559348  0.01902073     0.15080
H2468       H  0.67190420  0.29723848  0.93475063     0.15080
C2469       C  0.63229229  0.30083599  0.89739140     0.36730
C2470       C  0.61989112  0.22328976  0.05781323     0.36640
N2471       N  0.63525415  0.31718327  0.86535059    -0.43610
N2472       N  0.61706027  0.20744226  0.09049166    -0.43610
C2473       C  0.88683007  0.38956692  0.62580449    -0.00020
C2474       C  0.88698587  0.36473448  0.63280816    -0.11900
C2475       C  0.86218334  0.33608651  0.63029395     0.02210
C2476       C  0.83662867  0.33199711  0.62341825    -0.00110
C2477       C  0.83598047  0.35525879  0.63007646    -0.11840
C2478       C  0.86099775  0.38408312  0.63118333     0.02100
H2479       H  0.90693374  0.36843050  0.63235046     0.15080
H2480       H  0.81620647  0.35193708  0.62940466     0.15080
C2481       C  0.85964052  0.40799833  0.63316861     0.36730
C2482       C  0.86432951  0.31254900  0.62961900     0.36640
N2483       N  0.85860881  0.42716940  0.63521682    -0.43610
N2484       N  0.86617242  0.29376938  0.62903500    -0.43610
C2485       C  0.58810630  0.10913746  0.38286064    -0.00020
C2486       C  0.61276005  0.11254464  0.37620580    -0.11900
C2487       C  0.63938095  0.14034330  0.37676371     0.02210
C2488       C  0.64174171  0.16491320  0.38683313    -0.00110
C2489       C  0.61762062  0.16294325  0.38627322    -0.11840
C2490       C  0.59111562  0.13586060  0.38375613     0.02100
H2491       H  0.61138883  0.09330359  0.37285831     0.15080
H2492       H  0.61916329  0.18184824  0.39242413     0.15080
C2493       C  0.56793873  0.13696675  0.38578299     0.36730
C2494       C  0.66407131  0.14300096  0.36787570     0.36640
N2495       N  0.55044977  0.13951975  0.38744591    -0.43610
N2496       N  0.68372074  0.14510525  0.35975884    -0.43610
C2497       C  0.83977666  0.49943781  0.50949731    -0.00020
C2498       C  0.83339542  0.47139226  0.52481350    -0.11900
C2499       C  0.85261119  0.46660861  0.51707422     0.02210
C2500       C  0.87849524  0.99032888  0.49470405    -0.00110
C2501       C  0.88485130  0.01821193  0.47934934    -0.11840
C2502       C  0.86574674  0.02307325  0.48663991     0.02100
H2503       H  0.81273861  0.45281614  0.53982351     0.15080
H2504       H  0.90481970  0.03620597  0.46181680     0.15080
C2505       C  0.87316218  0.05223566  0.46941184     0.36730
C2506       C  0.84468726  0.43690979  0.52827825     0.36640
N2507       N  0.87987392  0.07585554  0.45499064    -0.43610
N2508       N  0.83861609  0.41319749  0.53602087    -0.43610
C2509       C  0.58955200  0.00068593  0.47555079    -0.00020
C2510       C  0.61472472  0.02280260  0.49297306    -0.11900
C2511       C  0.63945675  0.02710116  0.48452030     0.02210
C2512       C  0.63884442  0.50808340  0.46028294    -0.00110
C2513       C  0.61399377  0.48656743  0.44174449    -0.11840
C2514       C  0.58946564  0.48307057  0.44825999     0.02100
H2515       H  0.61531626  0.03764467  0.51130568     0.15080
H2516       H  0.61353201  0.47173561  0.42355455     0.15080
C2517       C  0.56488855  0.46106971  0.42646140     0.36730
C2518       C  0.66547289  0.05254544  0.49801614     0.36640
N2519       N  0.54624338  0.44341009  0.40738399    -0.43610
N2520       N  0.68604822  0.07387532  0.50760167    -0.43610
C2521       C  0.98448663  0.39832417  0.45628071    -0.00020
C2522       C  0.00303114  0.40119644  0.49025819    -0.11900
C2523       C  0.00008816  0.37615094  0.51520229     0.02210
C2524       C  0.97852947  0.34701646  0.50615371    -0.00110
C2525       C  0.95981704  0.34404020  0.47238132    -0.11840
C2526       C  0.96250491  0.36913665  0.44786427     0.02100
H2527       H  0.51925035  0.42303900  0.49882531     0.15080
H2528       H  0.94391881  0.32222982  0.46339451     0.15080
C2529       C  0.94286113  0.36443450  0.41311893     0.36730
C2530       C  0.01947497  0.38093391  0.55050642     0.36640
N2531       N  0.92716265  0.36066232  0.38516242    -0.43610
N2532       N  0.53498738  0.38480194  0.57884056    -0.43610
C2533       C  0.99376647  0.14767408  0.48204401    -0.00020
C2534       C  0.01000560  0.14768055  0.51819416    -0.11900
C2535       C  0.00435254  0.12083221  0.54150496     0.02210
C2536       C  0.98188040  0.09297440  0.52930873    -0.00110
C2537       C  0.96503236  0.09295696  0.49445266    -0.11840
C2538       C  0.97109819  0.11970849  0.47027813     0.02100
H2539       H  0.02653787  0.16856302  0.52930890     0.15080
H2540       H  0.94873342  0.07217592  0.48311880     0.15080
C2541       C  0.95441223  0.11790552  0.43192566     0.36730
C2542       C  0.02191057  0.12232193  0.57815431     0.36640
N2543       N  0.94119942  0.11653738  0.40102503    -0.43610
N2544       N  0.03590688  0.12348752  0.60766392    -0.43610
C2545       C  0.98153934  0.48629769  0.69645004    -0.00020
C2546       C  0.49694457  0.47795694  0.72210077    -0.11900
C2547       C  0.49752624  0.47598440  0.76875842     0.02210
C2548       C  0.98276422  0.48279438  0.79019432    -0.00110
C2549       C  0.96631718  0.48959771  0.76527656    -0.11840
C2550       C  0.96520080  0.49108460  0.71888106     0.02100
H2551       H  0.50904784  0.47352625  0.70585200     0.15080
H2552       H  0.95466148  0.49432954  0.78222381     0.15080
C2553       C  0.94749831  0.49821293  0.69602440     0.36730
C2554       C  0.51471823  0.46881177  0.79361129     0.36640
N2555       N  0.93315330  0.50375598  0.67804451    -0.43610
N2556       N  0.52846824  0.46305894  0.81357649    -0.43610
C2557       C  0.98545010  0.00857917  0.18799036    -0.00020
C2558       C  0.51055148  0.02603579  0.20960539    -0.11900
C2559       C  0.51040936  0.02385677  0.25611347     0.02210
C2560       C  0.48450455  0.00391716  0.28112746    -0.00110
C2561       C  0.95924661  0.98769929  0.25883594    -0.11840
C2562       C  0.95955419  0.98968468  0.21239487     0.02100
H2563       H  0.53039846  0.04049087  0.19025390     0.15080
H2564       H  0.93930975  0.97269448  0.27788641     0.15080
C2565       C  0.93316197  0.47194022  0.19054525     0.36730
C2566       C  0.53704982  0.04235189  0.27696062     0.36640
N2567       N  0.91211542  0.45790001  0.17280239    -0.43610
N2568       N  0.55846871  0.05716105  0.29339788    -0.43610
C2569       C  0.83460942  0.36980513  0.02393553    -0.00020
C2570       C  0.85720423  0.37052815  0.04085631    -0.11900
C2571       C  0.88119160  0.38313057  0.01427772     0.02210
C2572       C  0.88530691  0.39982256  0.97052323    -0.00110
C2573       C  0.86391238  0.40253662  0.95584839    -0.11840
C2574       C  0.83873197  0.38764586  0.98175752     0.02100
H2575       H  0.85504081  0.35880257  0.07472761     0.15080
H2576       H  0.86664097  0.41599733  0.92345000     0.15080
C2577       C  0.81765207  0.39089097  0.96395267     0.36730
C2578       C  0.90018406  0.37775561  0.03548489     0.36640
N2579       N  0.80103175  0.39393605  0.94950634    -0.43610
N2580       N  0.91333847  0.37195836  0.05742321    -0.43610
C2581       C  0.60312221  0.10015956  0.03336019    -0.00020
C2582       C  0.62366866  0.09518987  0.03980857    -0.11900
C2583       C  0.65011651  0.11466767  0.01628527     0.02210
C2584       C  0.65624454  0.13922039  0.98431661    -0.00110
C2585       C  0.63487240  0.14274920  0.97667634    -0.11840
C2586       C  0.61015543  0.12558441  0.00346027     0.02100
H2587       H  0.61874982  0.07542970  0.06222692     0.15080
H2588       H  0.63799489  0.16034633  0.95126713     0.15080
C2589       C  0.59386710  0.13626424  0.00284843     0.36730
C2590       C  0.66937132  0.10750279  0.02262656     0.36640
N2591       N  0.58143278  0.14531246  0.00482915    -0.43610
N2592       N  0.68452811  0.10134842  0.02683103    -0.43610
C2593       C  0.86606653  0.03659383  0.02469871    -0.00020
C2594       C  0.88042343  0.04236343  0.98479979    -0.11900
C2595       C  0.90480977  0.04378999  0.98484329     0.02210
C2596       C  0.91614038  0.03878718  0.02552300    -0.00110
C2597       C  0.90241560  0.53419005  0.06584561    -0.11840
C2598       C  0.87815779  0.03336072  0.06568078     0.02100
H2599       H  0.87175445  0.04453478  0.95279366     0.15080
H2600       H  0.90957857  0.52925822  0.09770510     0.15080
C2601       C  0.86465903  0.52720542  0.10799218     0.36730
C2602       C  0.91700249  0.04871286  0.94176420     0.36640
N2603       N  0.85388688  0.52223575  0.14204523    -0.43610
N2604       N  0.92680575  0.05264255  0.90729402    -0.43610
C2605       C  0.62395481  0.47717166  0.92501654    -0.00020
C2606       C  0.59648153  0.44955223  0.92600728    -0.11900
C2607       C  0.57156580  0.44796464  0.92362492     0.02210
C2608       C  0.57347935  0.47374088  0.92387692    -0.00110
C2609       C  0.60094079  0.00157981  0.91760454    -0.11840
C2610       C  0.62545489  0.00367857  0.91716018     0.02100
H2611       H  0.59432012  0.42919754  0.92937795     0.15080
H2612       H  0.60336690  0.02213727  0.91394290     0.15080
C2613       C  0.65171426  0.03336905  0.90685514     0.36730
C2614       C  0.54475565  0.42057755  0.91722739     0.36640
N2615       N  0.67241394  0.05735706  0.89795643    -0.43610
N2616       N  0.52334277  0.39898747  0.91024390    -0.43610
C2617       C  0.98952636  0.35189060  0.99474641    -0.00020
C2618       C  0.96160796  0.34089908  0.99175712    -0.11900
C2619       C  0.95267327  0.35457385  0.00901449     0.02210
C2620       C  0.47187571  0.37902850  0.03121655    -0.00110
C2621       C  0.49945966  0.38851979  0.03719297    -0.11840
C2622       C  0.50865031  0.37571109  0.01763342     0.02100
H2623       H  0.94669178  0.32133316  0.97626342     0.15080
H2624       H  0.51479637  0.40849630  0.05149900     0.15080
C2625       C  0.53815429  0.38903322  0.01629307     0.36730
C2626       C  0.92447368  0.34447046  0.99906459     0.36640
N2627       N  0.56180016  0.39995460  0.01283173    -0.43610
N2628       N  0.90179654  0.33549182  0.98954006    -0.43610
C2629       C  0.01564496  0.11907843  0.94706266    -0.00020
C2630       C  0.99201343  0.11012986  0.97119169    -0.11900
C2631       C  0.99304605  0.12972685  0.99320825     0.02210
C2632       C  0.01704669  0.15962451  0.98688147    -0.00110
C2633       C  0.54008352  0.16906824  0.96011409    -0.11840
C2634       C  0.53954575  0.14879367  0.94039198     0.02100
H2635       H  0.97361000  0.08696799  0.97626974     0.15080
H2636       H  0.55796210  0.19252687  0.95309629     0.15080
C2637       C  0.56364689  0.15871423  0.91387769     0.36730
C2638       C  0.96880014  0.11886896  0.02039615     0.36640
N2639       N  0.58300785  0.16663428  0.89278515    -0.43610
N2640       N  0.94920267  0.10984783  0.04193398    -0.43610
O2641       O  0.56761903  0.54937136  0.05519300    -0.75160
O2642       O  0.55295377  0.57727439  0.04090017    -0.54070
C2643       C  0.57303772  0.57467290  0.04645668     0.78570
O2644       O  0.49349870  0.51053619  0.84588867    -0.59760
O2645       O  0.48132908  0.96382486  0.86644320    -0.52790
C2646       C  0.48607176  0.98579222  0.83737058     0.70580
O2647       O  0.51162444  0.58168049  0.91722502    -0.74320
O2648       O  0.02231697  0.58764858  0.99030411    -0.54880
C2649       C  0.01799043  0.59554586  0.95032365     0.76590
O2650       O  0.56080174  0.49580666  0.96234022    -0.59460
O2651       O  0.52382230  0.95801759  0.93014058    -0.52580
C2652       C  0.55052345  0.97511813  0.93981075     0.73180
Zr2653     Zr  0.54692439  0.51897415  0.99853966     2.54710
O2654       O  0.58878150  0.56240821  0.95488461    -0.80030
O2655       O  0.57440211  0.50607803  0.04409664    -0.93450
Zr2656     Zr  0.50574009  0.53704121  0.90819580     2.64680
O2657       O  0.55236359  0.57254879  0.87156086    -0.98400
O2658       O  0.98825735  0.55386038  0.84492109    -0.80460
O2659       O  0.53146459  0.54848866  0.97441480    -0.83820
O2660       O  0.52254977  0.50875771  0.93048357    -2.18530
O2661       O  0.97527156  0.91707354  0.05891233    -0.67210
O2662       O  0.46681365  0.91105776  0.98522537    -0.51770
C2663       C  0.46996267  0.90316694  0.02588521     0.71560
O2664       O  0.92397285  0.00730765  0.00368208    -0.60120
O2665       O  0.96095234  0.54372033  0.03863007    -0.52090
C2666       C  0.93518278  0.52956744  0.02387729     0.73360
O2667       O  0.92172605  0.94641687  0.92788365    -0.71510
O2668       O  0.93139250  0.91513027  0.94580346    -0.50190
C2669       C  0.91323749  0.92017969  0.94375185     0.74750
O2670       O  0.97907482  0.98216971  0.13309198    -0.66840
O2671       O  0.99692893  0.53121540  0.11264256    -0.54040
C2672       C  0.98699979  0.50725793  0.14138561     0.73130
Zr2673     Zr  0.97807204  0.95978393  0.07181265     2.77540
O2674       O  0.93348446  0.91869989  0.11130166    -0.97590
O2675       O  0.50389327  0.95285243  0.13205282    -0.78410
Zr2676     Zr  0.93595045  0.97779813  0.98256882     2.70070
O2677       O  0.89877262  0.93912415  0.03815229    -0.79660
O2678       O  0.89975571  0.97814710  0.94055773    -0.98740
Zr2679     Zr  0.00086108  0.53937027  0.03248516     2.21500
Zr2680     Zr  0.48242512  0.95785784  0.94662240     2.11130
O2681       O  0.95371480  0.95067652  0.00612413    -2.47430
O2682       O  0.96119799  0.98831994  0.04946464    -0.79450
O2683       O  0.50794731  0.96858639  0.01409540    -0.71650
O2684       O  0.97509221  0.52800070  0.96534208    -2.32600
O2685       O  0.51686194  0.50969685  0.05725446    -2.28810
O2686       O  0.96549055  0.98675424  0.92318715    -0.73410
H2687       H  0.53424581  0.51211753  0.90636338     0.78590
H2688       H  0.96848795  0.53969286  0.95619896     0.79680
H2689       H  0.93830716  0.93033992  0.01551021     0.81900
H2690       H  0.52513347  0.51327203  0.08629959     0.79510
H2691       H  0.96799346  0.54235994  0.85263116     0.42550
H2692       H  0.89932335  0.97285926  0.91105522     0.41520
H2693       H  0.89969900  0.94992744  0.06097433     0.41190
H2694       H  0.93879309  0.91404308  0.14163296     0.39130
H2695       H  0.52083869  0.95855693  0.11659229     0.42260
H2696       H  0.56957887  0.50414088  0.07572613     0.37040
H2697       H  0.58476220  0.57682639  0.94516236     0.43160
H2698       H  0.55125055  0.56410043  0.84509220     0.39580
H2699       H  0.92454685  0.92781119  0.11629455     0.44490
H2700       H  0.59415117  0.52435701  0.03891508     0.43220
H2701       H  0.55350788  0.59038111  0.85866604     0.43350
H2702       H  0.88170979  0.96092886  0.95633565     0.43710
O2703       O  0.96048196  0.91912363  0.44201256    -0.75160
O2704       O  0.50695004  0.95146094  0.42964160    -0.54070
C2705       C  0.48406895  0.92429291  0.43922044     0.78570
O2706       O  0.91122531  0.49297241  0.45355492    -0.59760
O2707       O  0.90957351  0.48316175  0.53061085    -0.52790
C2708       C  0.90084566  0.48804073  0.49264752     0.70580
O2709       O  0.96279271  0.49655102  0.34843626    -0.74320
O2710       O  0.50280642  0.50002226  0.35085908    -0.54880
C2711       C  0.48326666  0.49978203  0.32997197     0.76590
O2712       O  0.92006638  0.91088936  0.56806872    -0.59460
O2713       O  0.91649791  0.94285216  0.59484545    -0.52580
C2714       C  0.90970753  0.91669130  0.59543555     0.73180
Zr2715     Zr  0.95045297  0.93317325  0.50265442     2.54710
O2716       O  0.90412338  0.89474677  0.47794094    -0.80030
O2717       O  0.95235164  0.89434046  0.54598551    -0.93450
Zr2718     Zr  0.94572571  0.49087046  0.42273530     2.64680
O2719       O  0.90341548  0.94731456  0.39730913    -0.98400
O2720       O  0.94031883  0.52403354  0.36880321    -0.80460
O2721       O  0.96413634  0.96417624  0.43104232    -0.83820
O2722       O  0.93177323  0.95941449  0.49373170    -2.18530
O2723       O  0.00172510  0.98979351  0.62884922    -0.67210
O2724       O  0.96585284  0.99317662  0.62484182    -0.51770
C2725       C  0.98313651  0.98997678  0.64682134     0.71560
O2726       O  0.54095792  0.57913687  0.40572293    -0.60120
O2727       O  0.55714578  0.55346946  0.40136680    -0.52090
C2728       C  0.56051295  0.57852309  0.39604745     0.73360
O2729       O  0.00635754  0.57368875  0.53199075    -0.71510
O2730       O  0.95982871  0.53945074  0.54671660    -0.50190
C2731       C  0.98246750  0.56696975  0.53913357     0.74750
O2732       O  0.55741600  0.49949380  0.51858705    -0.66840
O2733       O  0.55409262  0.50118608  0.44227398    -0.54040
C2734       C  0.56528990  0.50011842  0.47944266     0.73130
Zr2735     Zr  0.52068733  0.49814964  0.55389753     2.77540
O2736       O  0.56233597  0.54057289  0.58264353    -0.97590
O2737       O  0.52621588  0.96396297  0.60457053    -0.78410
Zr2738     Zr  0.51422663  0.55611453  0.47424179     2.70070
O2739       O  0.56039455  0.59922558  0.49131691    -0.79660
O2740       O  0.50146992  0.58618111  0.43099138    -0.98740
Zr2741     Zr  0.51446850  0.49956495  0.42810108     2.21500
Zr2742     Zr  0.95271971  0.49143641  0.54883834     2.11130
O2743       O  0.00285748  0.52555849  0.54599962    -2.47430
O2744       O  0.53430053  0.53079468  0.48387533    -0.79450
O2745       O  0.97078151  0.96402250  0.55796260    -0.71650
O2746       O  0.49515264  0.52567684  0.41804474    -2.32600
O2747       O  0.50034451  0.96692499  0.49983797    -2.28810
O2748       O  0.96472394  0.52238540  0.47758198    -0.73410
H2749       H  0.91151715  0.94556948  0.49767335     0.78590
H2750       H  0.49978948  0.53739983  0.38825260     0.79680
H2751       H  0.00979086  0.53682754  0.57031430     0.81900
H2752       H  0.50752482  0.95566462  0.50517516     0.79510
H2753       H  0.95952359  0.54324176  0.36388225     0.42550
H2754       H  0.98071479  0.57355658  0.43338677     0.41520
H2755       H  0.57174101  0.59195459  0.49779573     0.41190
H2756       H  0.55493523  0.54588037  0.60353984     0.39130
H2757       H  0.00979950  0.94389690  0.59915570     0.42260
H2758       H  0.97260085  0.90379541  0.54898753     0.37040
H2759       H  0.90512498  0.90100995  0.44492290     0.43160
H2760       H  0.88842161  0.94006312  0.41962060     0.39580
H2761       H  0.57044311  0.53198163  0.60248137     0.44490
H2762       H  0.94543536  0.87960164  0.52595044     0.43220
H2763       H  0.89883755  0.95557373  0.36954823     0.43350
H2764       H  0.50819330  0.60222061  0.44825691     0.43710
O2765       O  0.58224742  0.77978159  0.97954543    -0.75160
O2766       O  0.55904724  0.74857532  0.92826281    -0.54070
C2767       C  0.58005375  0.76338514  0.95377482     0.78570
O2768       O  0.49575281  0.72296434  0.13470614    -0.59760
O2769       O  0.48290362  0.75335008  0.12780026    -0.52790
C2770       C  0.49004068  0.73794774  0.15119355     0.70580
O2771       O  0.00816685  0.68363799  0.03028685    -0.74320
O2772       O  0.01501345  0.69655365  0.95349958    -0.54880
C2773       C  0.01372467  0.68173673  0.99141584     0.76590
O2774       O  0.56453837  0.82307012  0.05534418    -0.59460
O2775       O  0.52584913  0.81095463  0.09012283    -0.52580
C2776       C  0.55265844  0.82563565  0.08510341     0.73180
Zr2777     Zr  0.55672359  0.79619537  0.99756093     2.54710
O2778       O  0.60051623  0.81500589  0.03580590    -0.80030
O2779       O  0.58668905  0.84315029  0.94571650    -0.93450
Zr2780     Zr  0.49739562  0.71261260  0.06003349     2.64680
O2781       O  0.53068728  0.70936555  0.10662221    -0.98400
O2782       O  0.95781495  0.66318228  0.09691742    -0.80460
O2783       O  0.53218742  0.74472630  0.00121513    -0.83820
O2784       O  0.52262651  0.76437022  0.05752442    -2.18530
O2785       O  0.99576817  0.82678900  0.95058159    -0.67210
O2786       O  0.49520803  0.81775582  0.02764668    -0.51770
C2787       C  0.99451384  0.83136694  0.98996348     0.71560
O2788       O  0.94835619  0.71072647  0.90323204    -0.60120
O2789       O  0.97012491  0.69153746  0.89951548    -0.52090
C2790       C  0.94771811  0.68958637  0.89470890     0.73360
O2791       O  0.91424941  0.72374352  0.00511828    -0.71510
O2792       O  0.94019655  0.76075868  0.04687811    -0.50190
C2793       C  0.91774438  0.74336869  0.02509234     0.74750
O2794       O  0.99531096  0.77772089  0.84860680    -0.66840
O2795       O  0.01153207  0.75078693  0.85108644    -0.54040
C2796       C  0.00071033  0.76314947  0.83050011     0.73130
Zr2797     Zr  0.00235365  0.79524779  0.91934396     2.77540
O2798       O  0.97155094  0.80294092  0.87256588    -0.97590
O2799       O  0.54358230  0.84271593  0.88013700    -0.78410
Zr2800     Zr  0.94218594  0.71148264  0.98046833     2.70070
O2801       O  0.89417012  0.68240488  0.95480127    -0.79660
O2802       O  0.91803467  0.66020064  0.01971184    -0.98740
Zr2803     Zr  0.01071332  0.73444077  0.93080095     2.21500
Zr2804     Zr  0.48819118  0.77265824  0.04821710     2.11130
O2805       O  0.96703968  0.76348957  0.97711014    -2.47430
O2806       O  0.97712581  0.74364464  0.92196352    -0.79450
O2807       O  0.52385402  0.80564663  0.98954185    -0.71650
O2808       O  0.97498773  0.70134492  0.99023604    -2.32600
O2809       O  0.53696803  0.78720038  0.92618526    -2.28810
O2810       O  0.96231443  0.72025573  0.05202623    -0.73410
H2811       H  0.53201483  0.76919764  0.08553703     0.78590
H2812       H  0.96584657  0.68074942  0.98831674     0.79680
H2813       H  0.95552819  0.76986317  0.96939244     0.81900
H2814       H  0.55089625  0.79843692  0.90161723     0.79510
H2815       H  0.95031222  0.65077579  0.07308889     0.42550
H2816       H  0.90414824  0.65673196  0.04069574     0.41520
H2817       H  0.88164637  0.67111052  0.98219944     0.41190
H2818       H  0.95875918  0.78470103  0.85902568     0.39130
H2819       H  0.54910698  0.85730803  0.89975310     0.42260
H2820       H  0.60157482  0.84276223  0.93526580     0.37040
H2821       H  0.59500764  0.80007645  0.06357204     0.43160
H2822       H  0.54389345  0.72915042  0.11591733     0.39580
H2823       H  0.95904613  0.80164437  0.89377713     0.44490
H2824       H  0.59642963  0.85855600  0.96525613     0.43220
H2825       H  0.51974678  0.69547183  0.13452795     0.43350
H2826       H  0.90663438  0.64740403  0.99696125     0.43710
O2827       O  0.56065490  0.75349420  0.55612689    -0.75160
O2828       O  0.56343317  0.75334124  0.48131183    -0.54070
C2829       C  0.57246079  0.75462061  0.52126840     0.78570
O2830       O  0.92099783  0.66825446  0.56485991    -0.59760
O2831       O  0.90744170  0.69655407  0.54601583    -0.52790
C2832       C  0.90226790  0.67090665  0.55086641     0.70580
O2833       O  0.97151544  0.66953894  0.46248063    -0.74320
O2834       O  0.51842122  0.70184699  0.46095036    -0.54880
C2835       C  0.49519456  0.67476020  0.46591883     0.76590
O2836       O  0.99720781  0.74836897  0.63647139    -0.59460
O2837       O  0.95804225  0.74612507  0.62170568    -0.52580
C2838       C  0.97639603  0.74702071  0.64816900     0.73180
Zr2839     Zr  0.51885577  0.74947397  0.57166636     2.54710
O2840       O  0.51322188  0.70945787  0.62702683    -0.80030
O2841       O  0.55711210  0.78817729  0.61110270    -0.93450
Zr2842     Zr  0.95682435  0.68656685  0.51016323     2.64680
O2843       O  0.95780017  0.65031346  0.56465953    -0.98400
O2844       O  0.91775178  0.64596077  0.47491024    -0.80460
O2845       O  0.50588856  0.71861614  0.51778559    -0.83820
O2846       O  0.96967857  0.71698700  0.56535650    -2.18530
O2847       O  0.00609925  0.83107478  0.51506827    -0.67210
O2848       O  0.95949809  0.79454079  0.53045190    -0.51770
C2849       C  0.98116860  0.82247196  0.51996203     0.71560
O2850       O  0.98174541  0.74859329  0.35038220    -0.60120
O2851       O  0.51947595  0.74831453  0.36627829    -0.52090
C2852       C  0.50157830  0.74806767  0.33924763     0.73360
O2853       O  0.91636074  0.73868183  0.43715910    -0.71510
O2854       O  0.91391588  0.74053579  0.51141719    -0.50190
C2855       C  0.90414847  0.73713043  0.47211501     0.74750
O2856       O  0.55341674  0.82343199  0.41801783    -0.66840
O2857       O  0.57247688  0.80062232  0.43072872    -0.54040
C2858       C  0.57482111  0.82460397  0.42847385     0.73130
Zr2859     Zr  0.52299725  0.81074811  0.47917691     2.77540
O2860       O  0.53103735  0.85406554  0.42971412    -0.97590
O2861       O  0.56232073  0.84336491  0.52370734    -0.78410
Zr2862     Zr  0.96044700  0.74767194  0.41649076     2.70070
O2863       O  0.96555960  0.78879113  0.36512716    -0.79660
O2864       O  0.92385382  0.71153385  0.37203586    -0.98740
Zr2865     Zr  0.52560216  0.75054133  0.44659535     2.21500
Zr2866     Zr  0.95404604  0.74684399  0.54092405     2.11130
O2867       O  0.97405310  0.77883066  0.46965317    -2.47430
O2868       O  0.50991066  0.78046816  0.42362206    -0.79450
O2869       O  0.00347170  0.77937824  0.54980103    -0.71650
O2870       O  0.97582421  0.71808976  0.43894802    -2.32600
O2871       O  0.53818992  0.78116364  0.50238837    -2.28810
O2872       O  0.94127739  0.71585350  0.48632531    -0.73410
H2873       H  0.96182154  0.70521328  0.59489122     0.78590
H2874       H  0.97089047  0.70648054  0.41562639     0.79680
H2875       H  0.96715689  0.79008737  0.45870702     0.81900
H2876       H  0.55800490  0.79384661  0.50731443     0.79510
H2877       H  0.91848679  0.65536076  0.44355479     0.42550
H2878       H  0.91137918  0.69330796  0.39448678     0.41520
H2879       H  0.98579997  0.80579090  0.36530068     0.41190
H2880       H  0.01218881  0.84892726  0.42483511     0.39130
H2881       H  0.55449465  0.83612835  0.55502276     0.42260
H2882       H  0.57239330  0.80238773  0.58786122     0.37040
H2883       H  0.51576760  0.69835263  0.60941280     0.43160
H2884       H  0.97788117  0.65875294  0.56593234     0.39580
H2885       H  0.54051653  0.87007338  0.44815377     0.44490
H2886       H  0.56403833  0.77831105  0.63098731     0.43220
H2887       H  0.94888469  0.63281004  0.54957219     0.43350
H2888       H  0.91265382  0.71867328  0.36168724     0.43710
O2889       O  0.67237519  0.93096204  0.07295987    -0.75160
O2890       O  0.65598453  0.92075593  0.00273054    -0.54070
C2891       C  0.65288274  0.91624706  0.04622005     0.78570
O2892       O  0.73956209  0.56740673  0.03038704    -0.59760
O2893       O  0.78430404  0.58350291  0.04638394    -0.52790
C2894       C  0.76338650  0.58481250  0.04744254     0.70580
O2895       O  0.66957575  0.50325059  0.95613859    -0.74320
O2896       O  0.65495196  0.96163448  0.93140337    -0.54880
C2897       C  0.65125101  0.98076555  0.93838631     0.76590
O2898       O  0.74841980  0.99749930  0.13103669    -0.59460
O2899       O  0.78987015  0.54253490  0.10610241    -0.52580
C2900       C  0.77148174  0.52212465  0.13745903     0.73180
Zr2901     Zr  0.72176769  0.97033899  0.07025617     2.54710
O2902       O  0.69527967  0.96003777  0.13713405    -0.80030
O2903       O  0.72650507  0.93228301  0.10676591    -0.93450
Zr2904     Zr  0.71605251  0.52737064  0.98885992     2.64680
O2905       O  0.67875687  0.51087797  0.04143323    -0.98400
O2906       O  0.71959999  0.56928265  0.94389968    -0.80460
O2907       O  0.69695433  0.97871787  0.01232230    -0.83820
O2908       O  0.74081979  0.51972061  0.04781758    -2.18530
O2909       O  0.81844553  0.50621122  0.00159409    -0.67210
O2910       O  0.83069541  0.54506641  0.03444227    -0.51770
C2911       C  0.83653516  0.52898723  0.02085250     0.71560
O2912       O  0.73861422  0.50790079  0.84275106    -0.60120
O2913       O  0.69629408  0.96361296  0.86560891    -0.52090
C2914       C  0.71550475  0.98370646  0.83481121     0.73360
O2915       O  0.81470774  0.57971052  0.90193927    -0.71510
O2916       O  0.82851308  0.58783383  0.97391531    -0.50190
C2917       C  0.83316044  0.59375254  0.93087670     0.74750
O2918       O  0.74482556  0.94950729  0.91936269    -0.66840
O2919       O  0.69810048  0.92056971  0.93343395    -0.54040
C2920       C  0.72043819  0.92414869  0.92243994     0.73130
Zr2921     Zr  0.76798887  0.97568219  0.98278779     2.77540
O2922       O  0.79347279  0.96286823  0.94822726    -0.97590
O2923       O  0.75636775  0.93242287  0.03719821    -0.78410
Zr2924     Zr  0.76539201  0.53654973  0.90198012     2.70070
O2925       O  0.79367642  0.54654714  0.83795899    -0.79660
O2926       O  0.75894053  0.57299709  0.86364466    -0.98740
Zr2927     Zr  0.69580984  0.95967354  0.94827886     2.21500
Zr2928     Zr  0.78889965  0.54618738  0.02393115     2.11130
O2929       O  0.78932180  0.52713034  0.95999868    -2.47430
O2930       O  0.74404178  0.98532820  0.92487907    -0.79450
O2931       O  0.76878408  0.99461661  0.04691308    -0.71650
O2932       O  0.71775475  0.51114774  0.92436814    -2.32600
O2933       O  0.72038029  0.94997493  0.00794669    -2.28810
O2934       O  0.76409117  0.55484503  0.96460788    -0.73410
H2935       H  0.73954055  0.52653791  0.07356737     0.78590
H2936       H  0.70800865  0.51438401  0.89999755     0.79680
H2937       H  0.80819246  0.53663942  0.94927220     0.81900
H2938       H  0.71080894  0.92878591  0.01674923     0.79510
H2939       H  0.73988787  0.58468555  0.93568602     0.42550
H2940       H  0.77471617  0.59197858  0.87325384     0.41520
H2941       H  0.79944203  0.53358814  0.84718787     0.41190
H2942       H  0.81041207  0.48415459  0.92832831     0.39130
H2943       H  0.77299120  0.94037648  0.05615585     0.42260
H2944       H  0.70941484  0.91797088  0.12672018     0.37040
H2945       H  0.69053046  0.97398728  0.13046349     0.43160
H2946       H  0.68558636  0.50821215  0.07142319     0.39580
H2947       H  0.80229286  0.95782130  0.97326854     0.44490
H2948       H  0.74202907  0.94239343  0.12759026     0.43220
H2949       H  0.67925835  0.52849173  0.03992935     0.43350
H2950       H  0.76356424  0.57568199  0.83156144     0.43710
O2951       O  0.75442150  0.56898403  0.54702688    -0.75160
O2952       O  0.70716512  0.53453215  0.55821452    -0.54070
C2953       C  0.73064203  0.56119656  0.55862632     0.78570
O2954       O  0.73706800  0.51724906  0.33612217    -0.59760
O2955       O  0.77715217  0.52156895  0.35263930    -0.52790
C2956       C  0.75988680  0.52174243  0.32469984     0.70580
O2957       O  0.67336483  0.00836460  0.42759159    -0.74320
O2958       O  0.66595142  0.99826413  0.50428050    -0.54880
C2959       C  0.66119253  0.00517297  0.46387995     0.76590
O2960       O  0.80578511  0.58399412  0.43218719    -0.59460
O2961       O  0.82130674  0.55734004  0.44105775    -0.52580
C2962       C  0.82522694  0.58186227  0.44223209     0.73180
Zr2963     Zr  0.76757292  0.55866132  0.48572806     2.54710
O2964       O  0.75794856  0.59110714  0.44049183    -0.80030
O2965       O  0.80726173  0.60154323  0.51687056    -0.93450
Zr2966     Zr  0.71098792  0.00702948  0.40572050     2.64680
O2967       O  0.71579262  0.54911059  0.35848558    -0.98400
O2968       O  0.67259261  0.97142518  0.36254920    -0.80460
O2969       O  0.71953986  0.52763819  0.47210436    -0.83820
O2970       O  0.75938590  0.53843455  0.41923584    -2.18530
O2971       O  0.80258589  0.99467403  0.54146554    -0.67210
O2972       O  0.81103624  0.00637642  0.46501612    -0.51770
C2973       C  0.81655801  0.00081092  0.50550579     0.71560
O2974       O  0.67369787  0.91944500  0.54471172    -0.60120
O2975       O  0.65127847  0.93840883  0.54069564    -0.52090
C2976       C  0.65109942  0.91634140  0.53748808     0.73360
O2977       O  0.72658103  0.92470729  0.44183904    -0.71510
O2978       O  0.76926752  0.96565879  0.41081393    -0.50190
C2979       C  0.74926165  0.93705758  0.41889215     0.74750
O2980       O  0.73772061  0.98146449  0.63202642    -0.66840
O2981       O  0.69807079  0.97836704  0.61827734    -0.54040
C2982       C  0.71600202  0.97843091  0.64483713     0.73130
Zr2983     Zr  0.76084412  0.98918450  0.56133039     2.77540
O2984       O  0.75224535  0.94414467  0.60497089    -0.97590
O2985       O  0.79836212  0.52200773  0.60842541    -0.78410
Zr2986     Zr  0.70361273  0.93834418  0.47946810     2.70070
O2987       O  0.68869175  0.88795625  0.50550126    -0.79660
O2988       O  0.66645739  0.91436072  0.42661203    -0.98740
Zr2989     Zr  0.69742058  0.98888001  0.53652427     2.21500
Zr2990     Zr  0.77519202  0.00855193  0.43348484     2.11130
O2991       O  0.75172431  0.96818452  0.49550668    -2.47430
O2992       O  0.71235595  0.95799561  0.54714410    -0.79450
O2993       O  0.78370278  0.52940438  0.49987511    -0.71650
O2994       O  0.68792121  0.96802443  0.46838582    -2.32600
O2995       O  0.74637683  0.51958637  0.54959014    -2.28810
O2996       O  0.72667121  0.97736421  0.41703573    -0.73410
H2997       H  0.76823236  0.55329670  0.39230151     0.78590
H2998       H  0.66822740  0.95620284  0.46210573     0.79680
H2999       H  0.75850768  0.95653259  0.49930233     0.81900
H3000       H  0.74999152  0.52703337  0.57738884     0.79510
H3001       H  0.65536529  0.96144118  0.38149716     0.42550
H3002       H  0.67615345  0.92433114  0.39656195     0.41520
H3003       H  0.70043758  0.88977358  0.53158330     0.41190
H3004       H  0.75413584  0.93478250  0.58276529     0.39130
H3005       H  0.80577054  0.54237995  0.59302846     0.42260
H3006       H  0.80662577  0.59448158  0.54954474     0.37040
H3007       H  0.73824668  0.58207744  0.44841692     0.43160
H3008       H  0.73622754  0.56431984  0.35132708     0.39580
H3009       H  0.76898206  0.95152262  0.62352199     0.44490
H3010       H  0.80307888  0.61585918  0.51449856     0.43220
H3011       H  0.70749912  0.54207195  0.32975889     0.43350
H3012       H  0.66099676  0.89402514  0.43008043     0.43710
O3013       O  0.75027887  0.68647152  0.08731436    -0.75160
O3014       O  0.76008119  0.68622824  0.01584798    -0.54070
C3015       C  0.75733706  0.67740406  0.05882386     0.78570
O3016       O  0.66837549  0.74045728  0.98816731    -0.59760
O3017       O  0.69502837  0.77977040  0.02548845    -0.52790
C3018       C  0.67280702  0.76174441  0.00422609     0.70580
O3019       O  0.68675669  0.68738005  0.94164475    -0.74320
O3020       O  0.70823562  0.66942797  0.97354386    -0.54880
C3021       C  0.68501906  0.66541150  0.96286114     0.76590
O3022       O  0.73669097  0.74552296  0.14520341    -0.59460
O3023       O  0.73794652  0.78599744  0.11575779    -0.52580
C3024       C  0.73644497  0.76732337  0.14896170     0.73180
Zr3025     Zr  0.74140351  0.72404212  0.08702133     2.54710
O3026       O  0.70014949  0.67938744  0.12998891    -0.80030
O3027       O  0.77307115  0.73026880  0.14749439    -0.93450
Zr3028     Zr  0.69190220  0.71940953  0.98832632     2.64680
O3029       O  0.65575525  0.67972333  0.04472335    -0.98400
O3030       O  0.65610152  0.71152161  0.93508165    -0.80460
O3031       O  0.71877205  0.70355050  0.02178611    -0.83820
O3032       O  0.71261635  0.73841603  0.05589338    -2.18530
O3033       O  0.80347497  0.82049795  0.06117852    -0.67210
O3034       O  0.78461938  0.84261330  0.03926784    -0.51770
C3035       C  0.80685618  0.84454081  0.04555329     0.71560
O3036       O  0.76159368  0.76876967  0.85559355    -0.60120
O3037       O  0.75781776  0.72649876  0.88480969    -0.52090
C3038       C  0.76041778  0.74602128  0.85162532     0.73360
O3039       O  0.74183486  0.82371260  0.91729565    -0.71510
O3040       O  0.74006994  0.82847005  0.98987699    -0.50190
C3041       C  0.73765634  0.83428128  0.94769477     0.74750
O3042       O  0.83046451  0.77504267  0.00730431    -0.66840
O3043       O  0.80335523  0.73396389  0.97346359    -0.54040
C3044       C  0.82630449  0.75330184  0.99280142     0.73130
Zr3045     Zr  0.80565395  0.79496120  0.00906984     2.77540
O3046       O  0.83673924  0.83197115  0.94556650    -0.97590
O3047       O  0.84863846  0.81554289  0.04957409    -0.78410
Zr3048     Zr  0.75586765  0.79037328  0.91302722     2.70070
O3049       O  0.79758991  0.83671432  0.87384374    -0.79660
O3050       O  0.72671236  0.78609850  0.84941673    -0.98740
Zr3051     Zr  0.75489908  0.72107295  0.96720162     2.21500
Zr3052     Zr  0.74232563  0.79157243  0.03426800     2.11130
O3053       O  0.77839260  0.81049806  0.97760811    -2.47430
O3054       O  0.78364459  0.77443187  0.94373604    -0.79450
O3055       O  0.77096039  0.77698664  0.06564081    -0.71650
O3056       O  0.72779395  0.73784644  0.93388866    -2.32600
O3057       O  0.77672941  0.74280367  0.03242685    -2.28810
O3058       O  0.72081518  0.77149217  0.96829231    -0.73410
H3059       H  0.69828491  0.73207100  0.07770871     0.78590
H3060       H  0.72024308  0.73154182  0.90540176     0.79680
H3061       H  0.78966829  0.83175684  0.96783091     0.81900
H3062       H  0.78771219  0.73686184  0.04712867     0.79510
H3063       H  0.66641947  0.72174182  0.90550272     0.42550
H3064       H  0.70904369  0.77980153  0.86311090     0.41520
H3065       H  0.80720799  0.83049590  0.86038820     0.41190
H3066       H  0.83367017  0.84718286  0.94046727     0.39130
H3067       H  0.84242174  0.81059381  0.08147725     0.42260
H3068       H  0.78947096  0.73441353  0.13264612     0.37040
H3069       H  0.69590921  0.66274779  0.11648307     0.43160
H3070       H  0.66552724  0.67417153  0.06670077     0.39580
H3071       H  0.85600118  0.84187667  0.95659387     0.44490
H3072       H  0.76349328  0.71005241  0.16567768     0.43220
H3073       H  0.65094758  0.68954043  0.06107443     0.43350
H3074       H  0.73593901  0.80691087  0.83398019     0.43710
O3075       O  0.67687847  0.67675321  0.43704506    -0.75160
O3076       O  0.67323509  0.71393811  0.40954733    -0.54070
C3077       C  0.66601228  0.68730139  0.41139419     0.78570
O3078       O  0.72855450  0.73483389  0.64686592    -0.59760
O3079       O  0.76647669  0.73548094  0.63985898    -0.52790
C3080       C  0.74894809  0.73458968  0.66326657     0.70580
O3081       O  0.67298320  0.74414252  0.54931820    -0.74320
O3082       O  0.67266183  0.75325667  0.47261262    -0.54880
C3083       C  0.66364034  0.74959841  0.51227022     0.76590
O3084       O  0.72005140  0.66167392  0.54394964    -0.59460
O3085       O  0.76190385  0.69237149  0.57668762    -0.52580
C3086       C  0.74097999  0.66663671  0.56677658     0.73180
Zr3087     Zr  0.70916028  0.69146250  0.49624598     2.54710
O3088       O  0.66366806  0.65167119  0.53453376    -0.80030
O3089       O  0.71212379  0.65924180  0.45957950    -0.93450
Zr3090     Zr  0.70815483  0.73724489  0.57355086     2.64680
O3091       O  0.66679092  0.68835952  0.60749269    -0.98400
O3092       O  0.70350740  0.76229826  0.62427457    -0.80460
O3093       O  0.69211070  0.71793327  0.50518576    -0.83820
O3094       O  0.72385390  0.70943751  0.56508136    -2.18530
O3095       O  0.80895368  0.75453473  0.44997657    -0.67210
O3096       O  0.81193166  0.74657947  0.52632191    -0.51770
C3097       C  0.81917446  0.74927578  0.48557016     0.71560
O3098       O  0.76560778  0.83946530  0.45966525    -0.60120
O3099       O  0.72680895  0.81071083  0.41971075    -0.52090
C3100       C  0.74753669  0.83629925  0.43077295     0.73360
O3101       O  0.79464687  0.81193613  0.58446529    -0.71510
O3102       O  0.81225748  0.78649753  0.59158354    -0.50190
C3103       C  0.81296300  0.80822013  0.59941270     0.74750
O3104       O  0.76032190  0.77296811  0.35507010    -0.66840
O3105       O  0.72017443  0.76816077  0.36160219    -0.54040
C3106       C  0.73962770  0.77234173  0.33818153     0.73130
Zr3107     Zr  0.77727951  0.76592063  0.42907829     2.77540
O3108       O  0.81981947  0.81554975  0.40089750    -0.97590
O3109       O  0.78337667  0.74491630  0.37283967    -0.78410
Zr3110     Zr  0.77673054  0.81042362  0.50945518     2.70070
O3111       O  0.82566515  0.84984576  0.48446727    -0.79660
O3112       O  0.77813555  0.84757565  0.53969433    -0.98740
Zr3113     Zr  0.71174552  0.75868757  0.44284008     2.21500
Zr3114     Zr  0.77401983  0.74289977  0.55882821     2.11130
O3115       O  0.79413237  0.78469853  0.49773446    -2.47430
O3116       O  0.76182882  0.79326865  0.43950179    -0.79450
O3117       O  0.75865296  0.72474418  0.48949703    -0.71650
O3118       O  0.72703354  0.77799783  0.51218763    -2.32600
O3119       O  0.72802528  0.73126607  0.43388036    -2.28810
O3120       O  0.75743896  0.76983268  0.56917967    -0.73410
H3121       H  0.71717215  0.69342641  0.59045829     0.78590
H3122       H  0.72091371  0.78969112  0.51519307     0.79680
H3123       H  0.81443729  0.79735666  0.49773898     0.81900
H3124       H  0.72223664  0.72348682  0.40607101     0.79510
H3125       H  0.72026939  0.78345693  0.61677175     0.42550
H3126       H  0.76210318  0.83575011  0.56195207     0.41520
H3127       H  0.82519548  0.85351860  0.45123683     0.41190
H3128       H  0.83517599  0.81683100  0.41802571     0.39130
H3129       H  0.76730418  0.72337524  0.37899873     0.42260
H3130       H  0.71906824  0.67015954  0.42843985     0.37040
H3131       H  0.65082993  0.65621156  0.52153718     0.43160
H3132       H  0.67427180  0.68034433  0.63038719     0.39580
H3133       H  0.82294093  0.81457963  0.36991537     0.44490
H3134       H  0.69239426  0.64173816  0.45677307     0.43220
H3135       H  0.65708647  0.69275593  0.62522581     0.43350
H3136       H  0.79499788  0.85705392  0.55805766     0.43710
C3137       C  0.75325094  0.73492097  0.71244807    -0.00020
C3138       C  0.77818685  0.75986014  0.72662155    -0.11900
C3139       C  0.78148506  0.76336299  0.77209383     0.02210
C3140       C  0.75998625  0.74118204  0.80475395    -0.00110
C3141       C  0.73572110  0.71546318  0.79091570    -0.11840
C3142       C  0.73204293  0.71240887  0.74522542     0.02100
H3143       H  0.79459475  0.77737378  0.70176701     0.15080
H3144       H  0.71892807  0.69840064  0.81555240     0.15080
C3145       C  0.70618435  0.68614447  0.73265715     0.36730
C3146       C  0.80693511  0.79013394  0.78438374     0.36640
N3147       N  0.68545226  0.66505636  0.72263804    -0.43610
N3148       N  0.82734725  0.81160014  0.79421605    -0.43610
C3149       C  0.73532874  0.77146992  0.19546504    -0.00020
C3150       C  0.75995598  0.79475420  0.21291303    -0.11900
C3151       C  0.76134118  0.79646070  0.25891582     0.02210
C3152       C  0.73758702  0.77485979  0.28833551    -0.00110
C3153       C  0.71237312  0.75275761  0.27015901    -0.11840
C3154       C  0.71119864  0.75073235  0.22428036     0.02100
H3155       H  0.77857852  0.81083977  0.19095884     0.15080
H3156       H  0.69400594  0.73597781  0.29231325     0.15080
C3157       C  0.68523553  0.72677889  0.20760458     0.36730
C3158       C  0.78749951  0.82038327  0.27526195     0.36640
N3159       N  0.66444014  0.70764147  0.19408719    -0.43610
N3160       N  0.80845428  0.83960278  0.28831159    -0.43610
C3161       C  0.75188285  0.91532983  0.40457901    -0.00020
C3162       C  0.77659792  0.91819834  0.41265468    -0.11900
C3163       C  0.77645699  0.89341200  0.41580576     0.02210
C3164       C  0.75086462  0.86455072  0.41233957    -0.00110
C3165       C  0.72735367  0.86296561  0.39777921    -0.11840
C3166       C  0.72770548  0.88792032  0.39349878     0.02100
H3167       H  0.79555521  0.93918092  0.41996925     0.15080
H3168       H  0.70807952  0.84181288  0.39247742     0.15080
C3169       C  0.70239945  0.88436064  0.37955419     0.36730
C3170       C  0.80294571  0.89841199  0.42378402     0.36640
N3171       N  0.68209115  0.88134168  0.36803968    -0.43610
N3172       N  0.82435267  0.90279609  0.42983736    -0.43610
C3173       C  0.73260581  0.58722746  0.56658714    -0.00020
C3174       C  0.75031895  0.61361647  0.53535774    -0.11900
C3175       C  0.75484203  0.63999893  0.53780915     0.02210
C3176       C  0.74243863  0.64150942  0.57337407    -0.00110
C3177       C  0.72476670  0.61536321  0.60553650    -0.11840
C3178       C  0.71996934  0.58828392  0.60256878     0.02100
H3179       H  0.76001565  0.61344363  0.50705269     0.15080
H3180       H  0.71392970  0.61579453  0.63181450     0.15080
C3181       C  0.70248521  0.56230239  0.63652802     0.36730
C3182       C  0.76910801  0.66385586  0.49947399     0.36640
N3183       N  0.68859336  0.54147146  0.66394612    -0.43610
N3184       N  0.77967582  0.68214654  0.46772786    -0.43610
C3185       C  0.71152253  0.98015703  0.78625375    -0.00020
C3186       C  0.72569932  0.50632459  0.75393080    -0.11900
C3187       C  0.72712030  0.50580117  0.70831547     0.02210
C3188       C  0.71338560  0.97851774  0.69317432    -0.00110
C3189       C  0.69802719  0.95189652  0.72483496    -0.11840
C3190       C  0.69711000  0.95250104  0.77117578     0.02100
H3191       H  0.73680062  0.52782552  0.76441041     0.15080
H3192       H  0.68740619  0.93072250  0.71355995     0.15080
C3193       C  0.68267203  0.92469873  0.80254037     0.36730
C3194       C  0.74409653  0.53396208  0.67785524     0.36640
N3195       N  0.67113096  0.90238313  0.82767382    -0.43610
N3196       N  0.75803821  0.55667289  0.65394813    -0.43610
C3197       C  0.77519153  0.52762843  0.18432037    -0.00020
C3198       C  0.76754850  0.54438359  0.19609618    -0.11900
C3199       C  0.76295979  0.54346617  0.24146422     0.02210
C3200       C  0.76634081  0.52574787  0.27608942    -0.00110
C3201       C  0.77555934  0.01059318  0.26386293    -0.11840
C3202       C  0.77946867  0.51076803  0.21884775     0.02100
H3203       H  0.76362489  0.55691503  0.16967892     0.15080
H3204       H  0.77829363  0.99686249  0.28986223     0.15080
C3205       C  0.78670397  0.99294596  0.20811340     0.36730
C3206       C  0.75492109  0.56097632  0.25131544     0.36640
N3207       N  0.79231388  0.97828708  0.19970840    -0.43610
N3208       N  0.74864682  0.57530839  0.25853896    -0.43610
C3209       C  0.72899954  0.85429299  0.93569088    -0.00020
C3210       C  0.73915274  0.87547124  0.89563785    -0.11900
C3211       C  0.73520492  0.89772303  0.88844372     0.02210
C3212       C  0.71921878  0.89781701  0.92010460    -0.00110
C3213       C  0.70692580  0.87517242  0.95747473    -0.11840
C3214       C  0.71262349  0.85469779  0.96680741     0.02100
H3215       H  0.75187966  0.87604932  0.87154323     0.15080
H3216       H  0.69525444  0.87551540  0.98249469     0.15080
C3217       C  0.70307279  0.83669338  0.01117747     0.36730
C3218       C  0.74836286  0.92073398  0.84908030     0.36640
N3219       N  0.69542142  0.82377279  0.04763439    -0.43610
N3220       N  0.75891089  0.93924759  0.81756062    -0.43610
C3221       C  0.76159398  0.65417191  0.07483214    -0.00020
C3222       C  0.73805948  0.62436859  0.08535656    -0.11900
C3223       C  0.73989324  0.60131139  0.08435505     0.02210
C3224       C  0.76493306  0.60774331  0.06765668    -0.00110
C3225       C  0.78933718  0.63736332  0.06353293    -0.11840
C3226       C  0.78786867  0.66008454  0.06987947     0.02100
H3227       H  0.71803476  0.61906793  0.09325733     0.15080
H3228       H  0.80943468  0.64277659  0.05581906     0.15080
C3229       C  0.81267270  0.68602201  0.08414432     0.36730
C3230       C  0.71586960  0.57131819  0.10201486     0.36640
N3231       N  0.83216085  0.70464971  0.10056362    -0.43610
N3232       N  0.69660433  0.54775570  0.11801923    -0.43610
C3233       C  0.84862475  0.60545052  0.46614556    -0.00020
C3234       C  0.85427035  0.59670193  0.50942909    -0.11900
C3235       C  0.86924711  0.61699769  0.53953039     0.02210
C3236       C  0.87921325  0.64700546  0.52663818    -0.00110
C3237       C  0.87313040  0.65553490  0.48361276    -0.11840
C3238       C  0.85829605  0.63533181  0.45349262     0.02100
H3239       H  0.84564334  0.57352735  0.52073161     0.15080
H3240       H  0.88117964  0.67846278  0.47242936     0.15080
C3241       C  0.85273672  0.64569731  0.40984808     0.36730
C3242       C  0.87416849  0.60643185  0.58356003     0.36640
N3243       N  0.84824073  0.65401651  0.37495541    -0.43610
N3244       N  0.87813703  0.59792604  0.61879595    -0.43610
C3245       C  0.59761753  0.84982976  0.45192320    -0.00020
C3246       C  0.60997092  0.84398781  0.48948618    -0.11900
C3247       C  0.62491507  0.86404680  0.52008629     0.02210
C3248       C  0.62908678  0.89156342  0.51289053    -0.00110
C3249       C  0.61709201  0.89764436  0.47503863    -0.11840
C3250       C  0.60227441  0.87764518  0.44426138     0.02100
H3251       H  0.60667898  0.82290863  0.49654688     0.15080
H3252       H  0.62042843  0.91874225  0.46804477     0.15080
C3253       C  0.59308342  0.88688222  0.40394030     0.36730
C3254       C  0.63472808  0.85516951  0.55995202     0.36640
N3255       N  0.58598135  0.89452289  0.37149356    -0.43610
N3256       N  0.64249152  0.84795416  0.59192438    -0.43610
C3257       C  0.87760479  0.73284469  0.46813920    -0.00020
C3258       C  0.87607034  0.75179825  0.43413362    -0.11900
C3259       C  0.85705355  0.75749115  0.43863155     0.02210
C3260       C  0.83957872  0.74427526  0.47835041    -0.00110
C3261       C  0.83953127  0.72334592  0.51019691    -0.11840
C3262       C  0.85770852  0.71687733  0.50487990     0.02100
H3263       H  0.89123450  0.76403257  0.40586716     0.15080
H3264       H  0.82496520  0.71167882  0.53925020     0.15080
C3265       C  0.85566197  0.69427394  0.53871339     0.36730
C3266       C  0.85719723  0.77811177  0.40293573     0.36640
N3267       N  0.85271143  0.67577715  0.56670215    -0.43610
N3268       N  0.85736139  0.79442002  0.37381898    -0.43610
C3269       C  0.64151169  0.75289292  0.51605595    -0.00020
C3270       C  0.62526174  0.74045241  0.55663354    -0.11900
C3271       C  0.60351293  0.74231310  0.56113620     0.02210
C3272       C  0.59854667  0.75773282  0.52507420    -0.00110
C3273       C  0.61650078  0.77249285  0.48647495    -0.11840
C3274       C  0.63691516  0.76920778  0.48075043     0.02100
H3275       H  0.62867679  0.72808552  0.58424529     0.15080
H3276       H  0.61313025  0.78492633  0.45882300     0.15080
C3277       C  0.65109885  0.78120643  0.43695264     0.36730
C3278       C  0.58571786  0.72670327  0.60162428     0.36640
N3279       N  0.66150779  0.78995143  0.40122242    -0.43610
N3280       N  0.57154082  0.71414868  0.63418204    -0.43610
C3281       C  0.99193111  0.75846247  0.78388595    -0.00020
C3282       C  0.98320717  0.73172495  0.77170774    -0.11900
C3283       C  0.97472380  0.72596646  0.72825905     0.02210
C3284       C  0.97489913  0.74717532  0.69602658    -0.00110
C3285       C  0.98167716  0.77290897  0.70866595    -0.11840
C3286       C  0.99017233  0.77876085  0.75228343     0.02100
H3287       H  0.98324198  0.71532552  0.79605434     0.15080
H3288       H  0.98238153  0.78950338  0.68353160     0.15080
C3289       C  0.99864425  0.80661463  0.76246656     0.36730
C3290       C  0.96695132  0.69864582  0.71681308     0.36640
N3291       N  0.00538928  0.82894193  0.77052719    -0.43610
N3292       N  0.96070105  0.67678082  0.70757974    -0.43610
C3293       C  0.50293222  0.74661748  0.29149310    -0.00020
C3294       C  0.99126086  0.71896265  0.27923068    -0.11900
C3295       C  0.98682931  0.71537434  0.23382182     0.02210
C3296       C  0.49405977  0.73981086  0.19991601    -0.00110
C3297       C  0.50655377  0.76763536  0.21250904    -0.11840
C3298       C  0.51099689  0.77116596  0.25768799     0.02100
H3299       H  0.98442954  0.69984339  0.30528609     0.15080
H3300       H  0.51291867  0.78680612  0.18689150     0.15080
C3301       C  0.52365014  0.80015775  0.26875049     0.36730
C3302       C  0.97338178  0.68613051  0.22319799     0.36640
N3303       N  0.53389273  0.82338893  0.27768536    -0.43610
N3304       N  0.96250574  0.66265453  0.21470039    -0.43610
C3305       C  0.91957506  0.66200631  0.88800668    -0.00020
C3306       C  0.89895536  0.66526063  0.87093538    -0.11900
C3307       C  0.87043188  0.64283557  0.88318850     0.02210
C3308       C  0.86234951  0.61685752  0.91329413    -0.00110
C3309       C  0.88229288  0.61182671  0.92498024    -0.11840
C3310       C  0.91068232  0.63386315  0.91123665     0.02100
H3311       H  0.90540309  0.68654442  0.85177991     0.15080
H3312       H  0.87571153  0.59083242  0.94538434     0.15080
C3313       C  0.93022438  0.62730075  0.92168238     0.36730
C3314       C  0.85031893  0.64816032  0.86801997     0.36640
N3315       N  0.94586882  0.62186303  0.92838713    -0.43610
N3316       N  0.83419124  0.65242655  0.85591388    -0.43610
C3317       C  0.57300409  0.84770239  0.11344230    -0.00020
C3318       C  0.59557374  0.84647467  0.12328455    -0.11900
C3319       C  0.62114696  0.86767387  0.09834433     0.02210
C3320       C  0.62533747  0.89253000  0.06949924    -0.00110
C3321       C  0.60600348  0.89817204  0.07356053    -0.11840
C3322       C  0.58047527  0.87620205  0.09851425     0.02100
H3323       H  0.59111195  0.82562631  0.14037737     0.15080
H3324       H  0.61121434  0.91971542  0.05889210     0.15080
C3325       C  0.56243626  0.88276537  0.11023727     0.36730
C3326       C  0.64200888  0.86269088  0.10087028     0.36640
N3327       N  0.54800656  0.88794021  0.12045265    -0.43610
N3328       N  0.65869845  0.85868817  0.10260107    -0.43610
C3329       C  0.89535150  0.74749945  0.01623802    -0.00020
C3330       C  0.88905346  0.75816438  0.04690853    -0.11900
C3331       C  0.86693902  0.76032320  0.03977259     0.02210
C3332       C  0.84984465  0.75098223  0.00137843    -0.00110
C3333       C  0.85702096  0.74163450  0.96974116    -0.11840
C3334       C  0.87994316  0.74086840  0.97584430     0.02100
H3335       H  0.90084695  0.76396906  0.07731399     0.15080
H3336       H  0.84543817  0.73613264  0.93909570     0.15080
C3337       C  0.88848515  0.73573431  0.93784679     0.36730
C3338       C  0.86058329  0.76891580  0.07578395     0.36640
N3339       N  0.89539833  0.73218316  0.90682468    -0.43610
N3340       N  0.85568389  0.77481231  0.10623025    -0.43610
C3341       C  0.60247980  0.75993157  0.95987529    -0.00020
C3342       C  0.60019429  0.74126666  0.99952681    -0.11900
C3343       C  0.62364236  0.74351203  0.01684945     0.02210
C3344       C  0.65027151  0.76492625  0.99472665    -0.00110
C3345       C  0.65248757  0.78312942  0.95441685    -0.11840
C3346       C  0.62906769  0.78130372  0.93754985     0.02100
H3347       H  0.58014364  0.72570646  0.01822361     0.15080
H3348       H  0.67241291  0.79830208  0.93545689     0.15080
C3349       C  0.63284916  0.80188587  0.89783852     0.36730
C3350       C  0.61991004  0.72346866  0.05738745     0.36640
N3351       N  0.63592037  0.81841869  0.86599887    -0.43610
N3352       N  0.61695755  0.70745464  0.08991567    -0.43610
C3353       C  0.88682624  0.88958519  0.62574684    -0.00020
C3354       C  0.88698113  0.86475241  0.63274358    -0.11900
C3355       C  0.86217838  0.83610652  0.63021955     0.02210
C3356       C  0.83662574  0.83202093  0.62333836    -0.00110
C3357       C  0.83597700  0.85527970  0.63001069    -0.11840
C3358       C  0.86099450  0.88410151  0.63113139     0.02100
H3359       H  0.90692865  0.86844773  0.63228550     0.15080
H3360       H  0.81620338  0.85195901  0.62933765     0.15080
C3361       C  0.85963869  0.90801543  0.63313526     0.36730
C3362       C  0.86432273  0.81256822  0.62954012     0.36640
N3363       N  0.85860804  0.92718538  0.63519812    -0.43610
N3364       N  0.86616419  0.79378785  0.62895355    -0.43610
C3365       C  0.58811763  0.60915524  0.38278762    -0.00020
C3366       C  0.61277243  0.61256844  0.37611222    -0.11900
C3367       C  0.63939245  0.64037004  0.37665855     0.02210
C3368       C  0.64175245  0.66493973  0.38672733    -0.00110
C3369       C  0.61762840  0.66296204  0.38619410    -0.11840
C3370       C  0.59112369  0.63587469  0.38370175     0.02100
H3371       H  0.61140314  0.59332979  0.37275617     0.15080
H3372       H  0.61917019  0.68186504  0.39235341     0.15080
C3373       C  0.56794665  0.63697479  0.38577930     0.36730
C3374       C  0.66408329  0.64302987  0.36776482     0.36640
N3375       N  0.55046106  0.63952807  0.38748445    -0.43610
N3376       N  0.68373323  0.64513551  0.35964637    -0.43610
C3377       C  0.83976799  0.99946239  0.50934286    -0.00020
C3378       C  0.83339659  0.97142465  0.52469727    -0.11900
C3379       C  0.85261919  0.96664563  0.51698612     0.02210
C3380       C  0.87848914  0.49029358  0.49479926    -0.00110
C3381       C  0.88485489  0.51818382  0.47948361    -0.11840
C3382       C  0.86575904  0.52305100  0.48680561     0.02100
H3383       H  0.81274270  0.95284983  0.53971914     0.15080
H3384       H  0.90482449  0.53617911  0.46195657     0.15080
C3385       C  0.87318531  0.55222145  0.46961220     0.36730
C3386       C  0.84470345  0.93695100  0.52822537     0.36640
N3387       N  0.87990726  0.57584827  0.45521740    -0.43610
N3388       N  0.83863819  0.91324139  0.53599487    -0.43610
C3389       C  0.58958537  0.50071815  0.47544035    -0.00020
C3390       C  0.61475619  0.52283759  0.49286374    -0.11900
C3391       C  0.63948832  0.52713032  0.48443475     0.02210
C3392       C  0.63881095  0.00806247  0.46034507    -0.00110
C3393       C  0.61395771  0.98654733  0.44181256    -0.11840
C3394       C  0.58942957  0.98304483  0.44835189     0.02100
H3395       H  0.61534578  0.53768384  0.51118290     0.15080
H3396       H  0.61349458  0.97172117  0.42360611     0.15080
C3397       C  0.56485123  0.96104765  0.42655123     0.36730
C3398       C  0.66550313  0.55257492  0.49793346     0.36640
N3399       N  0.54620708  0.94339116  0.40746863    -0.43610
N3400       N  0.68607849  0.57390450  0.50751982    -0.43610
C3401       C  0.98448113  0.89835016  0.45623805    -0.00020
C3402       C  0.00302572  0.90122546  0.49021738    -0.11900
C3403       C  0.00007909  0.87618075  0.51517362     0.02210
C3404       C  0.97851751  0.84704459  0.50613492    -0.00110
C3405       C  0.95980426  0.84406536  0.47236276    -0.11840
C3406       C  0.96249538  0.86916081  0.44783351     0.02100
H3407       H  0.51921415  0.92301174  0.49892539     0.15080
H3408       H  0.94390591  0.82225359  0.46338027     0.15080
C3409       C  0.94285226  0.86445551  0.41308542     0.36730
C3410       C  0.01947080  0.88096628  0.55047037     0.36640
N3411       N  0.92715417  0.86068049  0.38512684    -0.43610
N3412       N  0.53494638  0.88475622  0.57891197    -0.43610
C3413       C  0.99376622  0.64766373  0.48213020    -0.00020
C3414       C  0.01000171  0.64766327  0.51828160    -0.11900
C3415       C  0.00435020  0.62081231  0.54157588     0.02210
C3416       C  0.98188265  0.59295860  0.52936253    -0.00110
C3417       C  0.96503941  0.59294808  0.49450304    -0.11840
C3418       C  0.97110311  0.61970237  0.47034605     0.02100
H3419       H  0.02652976  0.66854198  0.52941017     0.15080
H3420       H  0.94874542  0.57217138  0.48315458     0.15080
C3421       C  0.95441944  0.61790743  0.43199409     0.36730
C3422       C  0.02190477  0.62229487  0.57822651     0.36640
N3423       N  0.94120802  0.61654572  0.40109459    -0.43610
N3424       N  0.03589821  0.62345432  0.60773712    -0.43610
C3425       C  0.98153283  0.98629918  0.69639664    -0.00020
C3426       C  0.49693233  0.97800419  0.72222228    -0.11900
C3427       C  0.49752007  0.97605401  0.76887758     0.02210
C3428       C  0.98284342  0.98287520  0.79012459    -0.00110
C3429       C  0.96636833  0.98964935  0.76523508    -0.11840
C3430       C  0.96520601  0.99109174  0.71884730     0.02100
H3431       H  0.50901727  0.97354395  0.70599167     0.15080
H3432       H  0.95472413  0.99438880  0.78219701     0.15080
C3433       C  0.94746824  0.99817780  0.69601699     0.36730
C3434       C  0.51469531  0.96886459  0.79374926     0.36640
N3435       N  0.93309449  0.00368612  0.67805814    -0.43610
N3436       N  0.52843191  0.96309810  0.81372969    -0.43610
C3437       C  0.98538989  0.50850435  0.18806835    -0.00020
C3438       C  0.51059796  0.52599730  0.20950605    -0.11900
C3439       C  0.51044116  0.52385122  0.25600855     0.02210
C3440       C  0.48453040  0.50392449  0.28101092    -0.00110
C3441       C  0.95920824  0.48762664  0.25893160    -0.11840
C3442       C  0.95950156  0.48960416  0.21249299     0.02100
H3443       H  0.53045017  0.54044341  0.19016982     0.15080
H3444       H  0.93927723  0.47261818  0.27799822     0.15080
C3445       C  0.93322126  0.97203503  0.19042443     0.36730
C3446       C  0.53707428  0.54236583  0.27686370     0.36640
N3447       N  0.91217947  0.95800633  0.17266472    -0.43610
N3448       N  0.55848715  0.55719079  0.29330828    -0.43610
C3449       C  0.83495453  0.87024972  0.02390822    -0.00020
C3450       C  0.85749250  0.87086074  0.04079090    -0.11900
C3451       C  0.88145004  0.88339972  0.01419670     0.02210
C3452       C  0.88557321  0.90009025  0.97043488    -0.00110
C3453       C  0.86423452  0.90289971  0.95579257    -0.11840
C3454       C  0.83909724  0.88811051  0.98174761     0.02100
H3455       H  0.85530127  0.85910155  0.07464836     0.15080
H3456       H  0.86696905  0.91634993  0.92338048     0.15080
C3457       C  0.81807669  0.89146795  0.96400160     0.36730
C3458       C  0.90040424  0.87798102  0.03544118     0.36640
N3459       N  0.80150294  0.89459846  0.94960303    -0.43610
N3460       N  0.91349446  0.87213241  0.05747514    -0.43610
C3461       C  0.60318288  0.60007530  0.03295535    -0.00020
C3462       C  0.62366817  0.59499711  0.03825462    -0.11900
C3463       C  0.65010209  0.61475639  0.01472571     0.02210
C3464       C  0.65634340  0.63982739  0.98407559    -0.00110
C3465       C  0.63509241  0.64358992  0.97768423    -0.11840
C3466       C  0.61029839  0.62594581  0.00433854     0.02100
H3467       H  0.61870062  0.57492245  0.05967115     0.15080
H3468       H  0.63835907  0.66171961  0.95349287     0.15080
C3469       C  0.59394587  0.63647338  0.00480654     0.36730
C3470       C  0.66918502  0.60736269  0.01952366     0.36640
N3471       N  0.58142879  0.64534297  0.00751266    -0.43610
N3472       N  0.68419591  0.60104298  0.02245148    -0.43610
C3473       C  0.86609559  0.53681680  0.02456775    -0.00020
C3474       C  0.88048235  0.54256382  0.98471264    -0.11900
C3475       C  0.90480403  0.54386436  0.98482802     0.02210
C3476       C  0.91606255  0.53878521  0.02554045    -0.00110
C3477       C  0.90250926  0.03415641  0.06586753    -0.11840
C3478       C  0.87811481  0.53349530  0.06558715     0.02100
H3479       H  0.87186731  0.54478828  0.95267417     0.15080
H3480       H  0.90972936  0.02927753  0.09770124     0.15080
C3481       C  0.86473388  0.02706803  0.10812204     0.36730
C3482       C  0.91699584  0.54872918  0.94178292     0.36640
N3483       N  0.85398647  0.02209454  0.14220382    -0.43610
N3484       N  0.92679904  0.55261253  0.90734070    -0.43610
C3485       C  0.62425620  0.97778492  0.92592223    -0.00020
C3486       C  0.59684773  0.95018810  0.92601095    -0.11900
C3487       C  0.57186464  0.94847761  0.92363734     0.02210
C3488       C  0.57363664  0.97410622  0.92447760    -0.00110
C3489       C  0.60079203  0.50115358  0.91616041    -0.11840
C3490       C  0.62521909  0.50309481  0.91529068     0.02100
H3491       H  0.59478056  0.92992351  0.92873645     0.15080
H3492       H  0.60329115  0.52177468  0.91194404     0.15080
C3493       C  0.65143303  0.53257784  0.90305889     0.36730
C3494       C  0.54513463  0.92110851  0.91687484     0.36640
N3495       N  0.67205562  0.55637380  0.89229951    -0.43610
N3496       N  0.52378423  0.89951248  0.90971528    -0.43610
C3497       C  0.98930871  0.85174098  0.99473587    -0.00020
C3498       C  0.96141216  0.84081903  0.99178335    -0.11900
C3499       C  0.95256018  0.85457030  0.00902919     0.02210
C3500       C  0.47198377  0.87920527  0.03101100    -0.00110
C3501       C  0.49958647  0.88870474  0.03673515    -0.11840
C3502       C  0.50867646  0.87580560  0.01714808     0.02100
H3503       H  0.94644931  0.82124961  0.97632150     0.15080
H3504       H  0.51498785  0.90871475  0.05092354     0.15080
C3505       C  0.53815630  0.88904408  0.01567478     0.36730
C3506       C  0.92438008  0.84453146  0.99908854     0.36640
N3507       N  0.56177383  0.89987245  0.01211060    -0.43610
N3508       N  0.90170875  0.83557667  0.98956629    -0.43610
C3509       C  0.01553178  0.61898943  0.94717046    -0.00020
C3510       C  0.99190069  0.61002560  0.97131824    -0.11900
C3511       C  0.99293208  0.62960827  0.99336839     0.02210
C3512       C  0.01691541  0.65951505  0.98702679    -0.00110
C3513       C  0.54028009  0.66904069  0.96061814    -0.11840
C3514       C  0.53989877  0.64880415  0.94105785     0.02100
H3515       H  0.97350405  0.58686193  0.97639522     0.15080
H3516       H  0.55821110  0.69248447  0.95389670     0.15080
C3517       C  0.56425572  0.65872186  0.91528953     0.36730
C3518       C  0.96871783  0.61872611  0.02066901     0.36640
N3519       N  0.58382018  0.66663719  0.89479906    -0.43610
N3520       N  0.94915528  0.60970259  0.04230688    -0.43610
loop_ 
_geom_bond_atom_site_label_1 
_geom_bond_atom_site_label_2 
_geom_bond_distance 
_geom_bond_site_symmetry_2 
_ccdc_geom_bond_type 
O1          Zr13   2.377   1_554  S
O1            C3   1.260       .  A
O2        Zr1799   2.520       .  S
O2            C3   1.302       .  A
C3          C821   1.498       .  S
O4          Zr16   2.428   1_655  S
O4          C886   1.286   1_545  A
O5          Zr40   2.387       .  S
O5            C6   1.280       .  A
C6          O884   1.286       .  A
C6         C2548   1.453       .  S
O7          Zr16   2.437       .  S
O7         C1769   1.284       .  A
O8          Zr39   2.360   1_556  S
O8            C9   1.275       .  A
C9         O1767   1.284       .  A
C9          C869   1.432       .  S
O10         Zr13   2.398   1_565  S
O10         C892   1.280       .  A
O11         Zr40   2.580   1_455  S
O11          C12   1.314       .  A
C12         O890   1.280       .  A
C12         C848   1.543       .  S
Zr13         O14   2.437       .  S
Zr13         O15   2.437   1_556  S
Zr13         O19   2.379       .  S
Zr13         O20   2.373       .  S
Zr13         O45   2.392   1_556  S
Zr13        O923   2.346   1_546  S
O14          H57   0.990       .  S
O15          H56   0.990       .  S
O15          H60   0.990       .  S
Zr16         O17   2.434       .  S
Zr16       O1778   2.434   1_455  S
Zr16         O20   2.374       .  S
Zr16         O19   2.361       .  S
Zr16       O1804   2.381   1_455  S
Zr16       O2686   2.366   1_445  S
O17          H58   0.990       .  S
O17          H61   0.990       .  S
O18       Zr1776   2.434       .  S
O18          H51   0.990       .  S
O19       Zr1799   2.396   1_556  S
O20        Zr920   2.380   1_445  S
O20          H47   0.966       .  S
O21         Zr33   2.464       .  S
O21        C1783   1.293       .  A
O22         Zr40   2.326       .  S
O22          C23   1.270   1_556  A
C23        O1781   1.293       .  A
C23         C860   1.439       .  S
O24         Zr36   2.412   1_554  S
O24         C906   1.280       .  A
O25         Zr39   2.591       .  S
O25          C26   1.319       .  A
C26         O904   1.280       .  A
C26         C836   1.543       .  S
O27         Zr36   2.393       .  S
O27          C29   1.264       .  A
O28       Zr1800   2.507       .  S
O28          C29   1.288       .  A
C29         C812   1.509       .  S
O30         Zr33   2.427       .  S
O30         C912   1.286       .  A
O31         Zr39   2.386       .  S
O31          C32   1.282       .  A
C32         O910   1.286   1_545  A
C32         C797   1.442       .  S
Zr33         O34   2.433       .  S
Zr33       O1795   2.434       .  S
Zr33         O41   2.310       .  S
Zr33         O42   2.391       .  S
Zr33       O2685   2.330       .  S
Zr33       O1803   2.378       .  S
O34          H54   0.990       .  S
O34          H59   0.990       .  S
O35       Zr1793   2.434   1_455  S
O35          H55   0.990       .  S
Zr36         O37   2.431   1_556  S
Zr36         O38   2.440       .  S
Zr36         O42   2.364   1_556  S
Zr36         O41   2.368   1_556  S
Zr36         O46   2.393       .  S
Zr36        O924   2.345       .  S
O37          H53   0.990       .  S
O38          H52   0.989       .  S
O38          H62   0.990       .  S
Zr39       O1762   2.520       .  S
Zr39         O44   2.385   1_554  S
Zr39       O1779   2.395   1_554  S
Zr39        O922   2.379   1_545  S
Zr39       O1805   2.407       .  S
Zr40       O1788   2.507       .  S
Zr40         O43   2.386   1_656  S
Zr40        O900   2.381   1_655  S
Zr40       O1801   2.410   1_556  S
Zr40       O1806   2.418       .  S
O41       Zr1800   2.410   1_554  S
O41          H49   0.951       .  S
O42        Zr919   2.379       .  S
O43        Zr893   2.346   1_554  S
O43       Zr1793   2.378   1_455  S
O44       Zr1776   2.380       .  S
O44        Zr916   2.345   1_545  S
O44          H48   0.964       .  S
O45       Zr2673   2.329   1_445  S
O45       Zr1799   2.407       .  S
O45          H50   0.965       .  S
O46       Zr2656   2.367       .  S
O46       Zr1800   2.418       .  S
O63         Zr75   2.395       .  S
O63        C1825   1.267       .  A
O64        Zr981   2.512       .  S
O64          C65   1.297   1_455  A
C65        O1823   1.267       .  A
C65        C2521   1.504       .  S
O66         Zr78   2.426       .  S
O66          C68   1.285       .  A
O67        Zr102   2.372       .  S
O67          C68   1.278       .  A
C68         C740   1.439       .  S
O69         Zr78   2.433       .  S
O69        C1831   1.288       .  A
O70        Zr101   2.383   1_545  S
O70          C71   1.282   1_445  A
C71        O1829   1.288       .  A
C71         C800   1.457   1_565  S
O72         Zr75   2.385       .  S
O72          C74   1.279       .  A
O73        Zr982   2.468       .  S
O73          C74   1.294       .  A
C74         C713   1.488       .  S
Zr75         O76   2.436       .  S
Zr75         O77   2.435       .  S
Zr75         O81   2.368       .  S
Zr75         O82   2.349       .  S
Zr75        O105   2.358       .  S
Zr75       O1867   2.372       .  S
O76         H119   0.990       .  S
O77         H118   0.989       .  S
O77         H122   0.989       .  S
Zr78         O80   2.435   1_565  S
Zr78        O959   2.435       .  S
Zr78        O108   2.371   1_565  S
Zr78        O962   2.364       .  S
Zr78        O961   2.361       .  S
Zr78       O1866   2.353   1_565  S
O79        Zr958   2.435       .  S
O79         H120   0.990       .  S
O79         H123   0.990       .  S
O80         H113   0.990       .  S
O81        Zr958   2.361       .  S
O81       Zr2741   2.397       .  S
O82        Zr958   2.364       .  S
O82        Zr982   2.391       .  S
O82         H109   0.966       .  S
O83       Zr2735   2.454       .  S
O83          C85   1.293       .  A
O84        Zr982   2.370       .  S
O84          C85   1.278       .  A
C85         C785   1.478       .  S
O86         Zr98   2.358       .  S
O86          C88   1.261       .  A
O87        Zr101   2.552   1_545  S
O87          C88   1.308       .  A
C88         C725   1.511       .  S
O89       Zr1858   2.385       .  S
O89          C91   1.267       .  A
O90        Zr102   2.516   1_545  S
O90          C91   1.299       .  A
C91         C776   1.493       .  S
O92         Zr95   2.491       .  S
O92          C94   1.299   1_565  A
O93        Zr101   2.337   1_545  S
O93          C94   1.273       .  A
C94         C749   1.458       .  S
Zr95       O2723   2.454       .  S
Zr95         O96   2.434   1_565  S
Zr95        O977   2.434       .  S
Zr95        O104   2.367   1_565  S
Zr95       O1863   2.368   1_565  S
Zr95        O987   2.342       .  S
Zr95       O2745   2.372   1_455  S
O96         H116   0.990       .  S
O96         H121   0.990       .  S
O97        Zr975   2.434       .  S
O97        H1877   0.990       .  S
Zr98       O1849   2.385       .  S
Zr98         O99   2.435       .  S
Zr98        O100   2.434       .  S
Zr98        O104   2.372       .  S
Zr98        O106   2.367   1_455  S
Zr98       O1863   2.367       .  S
Zr98       O1868   2.354   1_455  S
O99         H115   0.990       .  S
O100        H124   0.989       .  S
O100       H1874   0.989   1_455  S
Zr101       O944   2.512       .  S
Zr101       O104   2.382   1_565  S
Zr101       O106   2.374   1_465  S
Zr101      O2721   2.397   1_455  S
Zr101       O987   2.403       .  S
Zr102       O953   2.468       .  S
Zr102       O964   2.370       .  S
Zr102       O103   2.384   1_565  S
Zr102       O108   2.364   1_565  S
Zr102       O962   2.391       .  S
Zr102       O985   2.380       .  S
O103      Zr1855   2.368   1_545  S
O103      Zr1858   2.367       .  S
O103        H111   0.965       .  S
O105      Zr2735   2.372       .  S
O105       Zr982   2.380       .  S
O106      Zr1838   2.353   1_545  S
O106        H110   0.964       .  S
O107      Zr1835   2.372   1_455  S
O107       Zr975   2.342       .  S
O107       Zr981   2.403       .  S
O107        H112   0.964       .  S
O108      Zr1858   2.354       .  S
H114       O1860   0.989       .  S
H117       O1857   0.990       .  S
O125       Zr137   2.391       .  S
O125        C127   1.277       .  A
O126      Zr1923   2.482       .  S
O126        C127   1.295       .  A
C127        C701   1.476       .  S
O128       Zr140   2.467       .  S
O128        C130   1.292       .  A
O129       Zr164   2.414       .  S
O129        C130   1.287       .  A
C130        C656   1.487       .  S
O131      Zr1900   2.457       .  S
O131        C133   1.291   1_554  A
O132       Zr163   2.326       .  S
O132        C133   1.272       .  A
C133        C872   1.437       .  S
O134       Zr137   2.381   1_554  S
O134        C136   1.279       .  A
O135       Zr164   2.458   1_455  S
O135        C136   1.290       .  A
C136        C677   1.474       .  S
Zr137       O138   2.433   1_556  S
Zr137       O139   2.434       .  S
Zr137       O143   2.348   1_556  S
Zr137       O144   2.374   1_556  S
Zr137       O167   2.341       .  S
Zr137       O169   2.362       .  S
O138        H181   0.991       .  S
O139        H180   0.990       .  S
O139        H184   0.990       .  S
Zr140      O1891   2.457   1_655  S
Zr140       O141   2.436   1_655  S
Zr140      O1902   2.433       .  S
Zr140       O144   2.362   1_655  S
Zr140       O143   2.369   1_655  S
Zr140      O1928   2.377   1_554  S
Zr140      O1930   2.388       .  S
O141        H182   0.990       .  S
O141        H185   0.990       .  S
O142      Zr1900   2.433       .  S
O142        H175   0.988       .  S
O143      Zr1923   2.367   1_554  S
O144       Zr164   2.384   1_455  S
O144        H171   0.964       .  S
O145       Zr157   2.440       .  S
O145        C147   1.286       .  A
O146       Zr164   2.326       .  S
O146       C1907   1.269   1_554  A
C147       O1906   1.269   1_556  A
C147        C857   1.422       .  S
O148       Zr160   2.410       .  S
O148        C150   1.270       .  A
O149       Zr163   2.459       .  S
O149        C150   1.282       .  A
C150        C665   1.482       .  S
O151       Zr160   2.400   1_554  S
O151        C153   1.277       .  A
O152      Zr1924   2.519       .  S
O152        C153   1.305       .  A
C153        C689   1.503       .  S
O154       Zr157   2.433       .  S
O154        C156   1.285       .  A
O155       Zr163   2.412       .  S
O155        C156   1.287       .  A
C156        C641   1.478       .  S
Zr157       O158   2.445       .  S
Zr157      O1919   2.434       .  S
Zr157       O165   2.361       .  S
Zr157       O166   2.354       .  S
Zr157      O1929   2.375       .  S
Zr157      O1927   2.363       .  S
O158        H178   0.990       .  S
O158        H183   0.990       .  S
O159      Zr1917   2.434       .  S
O159        H179   0.990       .  S
Zr160       O161   2.437       .  S
Zr160       O162   2.440   1_556  S
Zr160       O166   2.368       .  S
Zr160       O165   2.374       .  S
Zr160       O170   2.373   1_556  S
Zr160       O168   2.365       .  S
O161        H177   0.990       .  S
O162        H176   0.990       .  S
O162        H186   0.989   1_554  S
Zr163      O1886   2.485       .  S
Zr163       O166   2.372       .  S
Zr163       O168   2.414       .  S
Zr163      O1903   2.367   1_556  S
Zr163      O1929   2.386       .  S
Zr164      O1912   2.519       .  S
Zr164       O167   2.397   1_654  S
Zr164      O1925   2.379   1_554  S
Zr164      O1930   2.378       .  S
O165      Zr1924   2.379   1_556  S
O165        H173   0.961       .  S
O167      Zr1917   2.363       .  S
O168      Zr1900   2.377   1_556  S
O168        H172   0.966       .  S
O169      Zr1917   2.375       .  S
O169      Zr1923   2.386       .  S
O169        H174   0.966       .  S
O170      Zr1900   2.388       .  S
O170      Zr1924   2.378       .  S
O187       Zr199   2.462       .  S
O187        C189   1.291       .  A
O188       Zr225   2.353       .  S
O188        C189   1.279       .  A
C189        C632   1.466       .  S
O190       Zr202   2.380       .  S
O190        C192   1.259       .  A
O191       Zr226   2.494       .  S
O191        C192   1.290       .  A
C192        C596   1.491       .  S
O193       Zr202   2.376       .  S
O193       C1955   1.264       .  A
O194       Zr225   2.517       .  S
O194        C195   1.297   1_455  A
C195       O1953   1.264       .  A
C195       C2533   1.497       .  S
O196      Zr1959   2.414       .  S
O196        C198   1.284       .  A
O197       Zr226   2.431       .  S
O197        C198   1.290       .  A
C198        C644   1.461       .  S
Zr199      O1956   2.414   1_455  S
Zr199       O200   2.434       .  S
Zr199       O201   2.436       .  S
Zr199       O205   2.366       .  S
Zr199       O231   2.334       .  S
Zr199      O1966   2.356   1_455  S
Zr199      O1989   2.386       .  S
O200        H243   0.990       .  S
O201        H242   0.990       .  S
O201        H246   0.990       .  S
Zr202       O203   2.435       .  S
Zr202       O204   2.430       .  S
Zr202       O206   2.383       .  S
Zr202       O230   2.376       .  S
Zr202       O232   2.371       .  S
Zr202      O1965   2.355       .  S
O203        H244   0.989       .  S
O203        H247   0.990       .  S
O204        H237   0.990       .  S
O205       Zr225   2.387       .  S
O205      Zr1962   2.355   1_455  S
O206       Zr226   2.407       .  S
O206      Zr1959   2.356       .  S
O206        H233   0.966       .  S
O207      Zr1979   2.393       .  S
O207        C209   1.273       .  A
O208       Zr226   2.519       .  S
O208        C209   1.301       .  A
C209        C764   1.500       .  S
O210       Zr222   2.442       .  S
O210       C1972   1.289       .  A
O211       Zr225   2.443       .  S
O211        C212   1.292       .  A
C212       O1970   1.289   1_455  A
C212        C653   1.475       .  S
O213       Zr222   2.487       .  S
O213        C215   1.298       .  A
O214       Zr226   2.336       .  S
O214        C215   1.276       .  A
C215        C617   1.459       .  S
O216       Zr219   2.396       .  S
O216        C218   1.265       .  A
O217       Zr225   2.497       .  S
O217        C218   1.289       .  A
C218        C605   1.508       .  S
Zr219      O1967   2.393       .  S
Zr219       O220   2.438       .  S
Zr219       O221   2.430       .  S
Zr219       O228   2.383       .  S
Zr219       O231   2.366       .  S
Zr219      O1987   2.358   1_455  S
Zr219      O1989   2.364       .  S
O220        H245   0.990       .  S
O220       H2000   0.990       .  S
O221        H241   0.990       .  S
Zr222       O223   2.435       .  S
Zr222       O224   2.433       .  S
Zr222       O227   2.354       .  S
Zr222       O232   2.349       .  S
Zr222       O230   2.372       .  S
Zr222      O1988   2.373       .  S
O223        H239   0.990       .  S
O224        H238   0.989       .  S
O224        H248   0.990       .  S
Zr225       O228   2.408       .  S
Zr225       O231   2.408       .  S
Zr225      O1990   2.389   1_455  S
Zr226       O227   2.392       .  S
Zr226       O229   2.378       .  S
Zr226       O232   2.391       .  S
O227      Zr1979   2.358       .  S
O227        H235   0.965       .  S
O228      Zr1982   2.373   1_455  S
O229      Zr1959   2.386       .  S
O229      Zr1979   2.364       .  S
O230      Zr1985   2.389       .  S
O230        H234   0.965       .  S
O231        H236   0.960       .  S
H240       O1980   0.990       .  S
O249       Zr261   2.385       .  S
O249        C251   1.276       .  A
O250       Zr287   2.485   1_554  S
O250        C251   1.299       .  A
C251        C680   1.473       .  S
O252       Zr264   2.389   1_554  S
O252        C254   1.279       .  A
O253       Zr288   2.539       .  S
O253        C254   1.310       .  A
C254        C584   1.505       .  S
O255       Zr264   2.454       .  S
O255       C1137   1.291   1_545  A
O256       Zr287   2.540       .  S
O256        C257   1.307       .  A
C257       O1135   1.291       .  A
C257        C845   1.548       .  S
O258       Zr261   2.430       .  S
O258       C1140   1.284       .  A
O259       Zr288   2.455       .  S
O259        C260   1.292       .  A
C260       O1138   1.284   1_545  A
C260        C557   1.479       .  S
Zr261       O262   2.434       .  S
Zr261       O263   2.433       .  S
Zr261       O267   2.381       .  S
Zr261       O291   2.363       .  S
Zr261       O293   2.371       .  S
Zr261      O1148   2.347       .  S
O262        H305   0.991       .  S
O263        H304   0.990       .  S
O263        H308   0.990       .  S
Zr264       O265   2.431   1_556  S
Zr264       O266   2.433       .  S
Zr264       O268   2.384   1_556  S
Zr264       O292   2.350       .  S
Zr264       O294   2.388       .  S
Zr264      O1147   2.346   1_546  S
O265        H306   0.989       .  S
O265        H309   0.990       .  S
O266        H299   0.990       .  S
O267       Zr287   2.377   1_554  S
O267      Zr1144   2.346   1_554  S
O268       Zr288   2.401       .  S
O268      Zr1141   2.348   1_545  S
O268        H295   0.964       .  S
O269      Zr1161   2.482   1_544  S
O269        C271   1.294       .  A
O270       Zr288   2.548       .  S
O270        C271   1.311       .  A
C271        C833   1.544       .  S
O272       Zr284   2.426       .  S
O272       C1154   1.287   1_545  A
O273       Zr287   2.470       .  S
O273        C274   1.296       .  A
C274       O1152   1.287       .  A
C274        C545   1.500       .  S
O275       Zr284   2.435       .  S
O275        C277   1.286       .  A
O276       Zr288   2.441   1_556  S
O276        C277   1.292       .  A
C277        C668   1.471       .  S
O278       Zr281   2.440       .  S
O278        C280   1.280       .  A
O279       Zr287   2.466       .  S
O279        C280   1.294       .  A
C280        C572   1.490       .  S
Zr281      O1149   2.482   1_556  S
Zr281       O282   2.440       .  S
Zr281       O283   2.434   1_556  S
Zr281       O290   2.378       .  S
Zr281       O293   2.394   1_556  S
Zr281       O291   2.382   1_556  S
Zr281      O1169   2.362       .  S
O282        H307   0.990       .  S
O282       H1182   0.990       .  S
O283        H303   0.990       .  S
Zr284       O285   2.434       .  S
Zr284       O286   2.434       .  S
Zr284       O289   2.374       .  S
Zr284       O294   2.365       .  S
Zr284       O292   2.375       .  S
Zr284      O1170   2.358   1_545  S
O285        H301   0.990       .  S
O286        H300   0.990       .  S
O286        H310   0.990       .  S
Zr287       O290   2.411       .  S
Zr287       O293   2.439   1_556  S
Zr287      O1172   2.397       .  S
Zr288       O289   2.406   1_554  S
Zr288       O294   2.416   1_554  S
Zr288      O1171   2.404   1_545  S
O289      Zr1161   2.362   1_545  S
O289        H297   0.964       .  S
O290      Zr1164   2.357       .  S
O291      Zr1168   2.404       .  S
O292      Zr1167   2.397   1_545  S
O292        H296   0.966       .  S
O293        H298   0.966       .  S
H302       O1162   0.990       .  S
O311       Zr323   2.380       .  S
O311        C313   1.270       .  A
O312      Zr1229   2.526   1_545  S
O312        C313   1.303       .  A
C313        C533   1.495       .  S
O314      Zr1206   2.491       .  S
O314        C316   1.299       .  A
O315      Zr1230   2.414       .  S
O315        C316   1.288       .  A
C316        C560   1.492       .  S
O317       Zr326   2.464       .  S
O317        C319   1.293       .  A
O318       Zr349   2.365       .  S
O318        C319   1.278       .  A
C319        C752   1.450       .  S
O320       Zr323   2.382       .  S
O320        C322   1.258       .  A
O321      Zr1230   2.492       .  S
O321        C322   1.289       .  A
C322        C593   1.484       .  S
Zr323       O324   2.438       .  S
Zr323       O325   2.439       .  S
Zr323       O329   2.337       .  S
Zr323       O330   2.378       .  S
Zr323       O353   2.376       .  S
Zr323       O355   2.385       .  S
O324        H367   0.990       .  S
O325        H366   0.990       .  S
O325        H370   0.990       .  S
Zr326      O1194   2.491       .  S
Zr326       O328   2.436       .  S
Zr326      O1207   2.433       .  S
Zr326       O354   2.364       .  S
Zr326       O356   2.376       .  S
Zr326      O1210   2.352       .  S
Zr326      O1209   2.383       .  S
O327      Zr1206   2.433       .  S
O327        H368   0.990       .  S
O327        H371   0.990       .  S
O328        H361   0.990       .  S
O329      Zr1206   2.383       .  S
O329      Zr1229   2.390   1_545  S
O330      Zr1206   2.352       .  S
O330      Zr1230   2.395       .  S
O330        H357   0.966       .  S
O331       Zr343   2.449       .  S
O331        C333   1.289       .  A
O332       Zr350   2.352       .  S
O332        C333   1.277       .  A
C333        C737   1.442       .  S
O334       Zr346   2.391       .  S
O334        C336   1.265       .  A
O335       Zr349   2.489       .  S
O335        C336   1.287       .  A
C336        C608   1.503       .  S
O337       Zr346   2.402       .  S
O337        C339   1.279       .  A
O338       Zr350   2.494       .  S
O338        C339   1.299       .  A
C339        C521   1.497       .  S
O340       Zr343   2.470       .  S
O340        C342   1.294       .  A
O341       Zr349   2.437       .  S
O341        C342   1.290       .  A
C342        C548   1.486       .  S
Zr343       O344   2.435       .  S
Zr343      O1225   2.434       .  S
Zr343       O351   2.374       .  S
Zr343       O352   2.362       .  S
Zr343      O1235   2.356       .  S
Zr343      O1233   2.373       .  S
O344        H364   0.990       .  S
O344        H369   0.990       .  S
O345      Zr1223   2.434   1_545  S
O345        H365   0.990       .  S
Zr346       O347   2.432       .  S
Zr346       O348   2.430       .  S
Zr346       O352   2.390       .  S
Zr346       O351   2.356       .  S
Zr346       O356   2.359       .  S
Zr346       O354   2.377       .  S
O347        H363   0.990       .  S
O348        H362   0.990       .  S
O348        H372   0.989       .  S
Zr349      O1192   2.526       .  S
Zr349       O352   2.406       .  S
Zr349       O354   2.431       .  S
Zr349      O1209   2.390       .  S
Zr349      O1235   2.375       .  S
Zr350      O1195   2.414       .  S
Zr350      O1201   2.492       .  S
Zr350       O351   2.388       .  S
Zr350       O356   2.380       .  S
Zr350      O1210   2.395       .  S
Zr350      O1233   2.389       .  S
O351        H359   0.965       .  S
O353      Zr1223   2.373   1_545  S
O353      Zr1230   2.389       .  S
O354        H358   0.962       .  S
O355      Zr1223   2.356   1_545  S
O355      Zr1229   2.375   1_545  S
O355        H360   0.964       .  S
O373       Zr385   2.528       .  S
O373        C375   1.304       .  A
O374       Zr411   2.427   1_554  S
O374        C375   1.290       .  A
C375        C581   1.502       .  S
O376       Zr388   2.368       .  S
O376        C378   1.270   1_556  A
O377       Zr412   2.495       .  S
O377        C378   1.298       .  A
C378        C704   1.479   1_554  S
O379       Zr388   2.388       .  S
O379        C381   1.253       .  A
O380       Zr411   2.529       .  S
O380        C381   1.292       .  A
C381        C824   1.508       .  S
O382       Zr385   2.460       .  S
O382        C384   1.292       .  A
O383       Zr412   2.441       .  S
O383        C384   1.291       .  A
C384        C509   1.484       .  S
Zr385       O386   2.434       .  S
Zr385       O387   2.436       .  S
Zr385       O391   2.365       .  S
Zr385       O392   2.405       .  S
Zr385       O415   2.383       .  S
Zr385       O417   2.352       .  S
O386        H429   0.990       .  S
O387        H428   0.990       .  S
O387        H432   0.990       .  S
Zr388       O389   2.435   1_556  S
Zr388       O390   2.437       .  S
Zr388       O392   2.381   1_556  S
Zr388       O391   2.383   1_556  S
Zr388       O416   2.376       .  S
Zr388       O418   2.342       .  S
O389        H430   0.988       .  S
O389        H433   0.990       .  S
O390        H423   0.990       .  S
O391       Zr411   2.402   1_554  S
O392       Zr412   2.394       .  S
O392        H419   0.966       .  S
O393       Zr405   2.411       .  S
O393        C395   1.268       .  A
O394       Zr412   2.464       .  S
O394        C395   1.276       .  A
C395        C809   1.495       .  S
O396       Zr408   2.476       .  S
O396        C398   1.297       .  A
O397       Zr411   2.462       .  S
O397        C398   1.298       .  A
C398        C500   1.491       .  S
O399       Zr408   2.557       .  S
O399        C401   1.311       .  A
O400       Zr412   2.366   1_556  S
O400        C401   1.277       .  A
C401        C569   1.512       .  S
O402       Zr405   2.387       .  S
O402        C404   1.276   1_554  A
O403       Zr411   2.533       .  S
O403        C404   1.309       .  A
C404        C692   1.502   1_556  S
Zr405       O406   2.432   1_554  S
Zr405       O407   2.419       .  S
Zr405       O413   2.373   1_554  S
Zr405       O414   2.361   1_554  S
Zr405       O417   2.356       .  S
Zr405       O415   2.377       .  S
O406        H426   0.985       .  S
O406        H431   0.988       .  S
O407        H427   0.990       .  S
Zr408       O409   2.434       .  S
Zr408       O410   2.435       .  S
Zr408       O414   2.412       .  S
Zr408       O413   2.340       .  S
Zr408       O418   2.352       .  S
Zr408       O416   2.366       .  S
O409        H425   0.990       .  S
O410        H424   0.990       .  S
O410        H434   0.990       .  S
Zr411       O414   2.410       .  S
Zr411       O416   2.434       .  S
Zr411       O417   2.379   1_556  S
Zr412       O413   2.422   1_554  S
Zr412       O415   2.407       .  S
Zr412       O418   2.365   1_554  S
O413        H421   0.962       .  S
O416        H420   0.965       .  S
O417        H422   0.962       .  S
O435       Zr447   2.381       .  S
O435        C437   1.276       .  A
O436       Zr473   2.506       .  S
O436        C437   1.304       .  A
C437        C728   1.489       .  S
O438       Zr450   2.468       .  S
O438        C440   1.294       .  A
O439       Zr474   2.441       .  S
O439        C440   1.291       .  A
C440        C497   1.491       .  S
O441       Zr450   2.420       .  S
O441        C443   1.285       .  A
O442       Zr473   2.409       .  S
O442        C443   1.286       .  A
C443        C629   1.474       .  S
O444       Zr447   2.399       .  S
O444        C446   1.278       .  A
O445       Zr474   2.484       .  S
O445        C446   1.298       .  A
C446        C536   1.480       .  S
Zr447       O448   2.436       .  S
Zr447       O449   2.435       .  S
Zr447       O453   2.363       .  S
Zr447       O454   2.360       .  S
Zr447       O477   2.355       .  S
Zr447       O479   2.377       .  S
O448        H491   0.990       .  S
O449        H490   0.990       .  S
O449        H494   0.990       .  S
Zr450       O451   2.434       .  S
Zr450       O452   2.433       .  S
Zr450       O454   2.364       .  S
Zr450       O453   2.379       .  S
Zr450       O478   2.387       .  S
Zr450       O480   2.343       .  S
O451        H492   0.990       .  S
O451        H495   0.990       .  S
O452        H485   0.990       .  S
O453       Zr473   2.403       .  S
O454       Zr474   2.386       .  S
O454        H481   0.966       .  S
O455       Zr467   2.378       .  S
O455        C457   1.275       .  A
O456       Zr474   2.437       .  S
O456        C457   1.293       .  A
C457        C620   1.465       .  S
O458       Zr470   2.405       .  S
O458        C460   1.280       .  A
O459       Zr473   2.506       .  S
O459        C460   1.304       .  A
C460        C524   1.510       .  S
O461       Zr470   2.423       .  S
O461        C463   1.280       .  A
O462       Zr474   2.458       .  S
O462        C463   1.292       .  A
C463        C716   1.495       .  S
O464       Zr467   2.451       .  S
O464        C466   1.289       .  A
O465       Zr473   2.443       .  S
O465        C466   1.290       .  A
C466        C512   1.490       .  S
Zr467       O468   2.434       .  S
Zr467       O469   2.434       .  S
Zr467       O475   2.378       .  S
Zr467       O476   2.343       .  S
Zr467       O479   2.346       .  S
Zr467       O477   2.383       .  S
O468        H488   0.990       .  S
O468        H493   0.990       .  S
O469        H489   0.990       .  S
Zr470       O471   2.435       .  S
Zr470       O472   2.435       .  S
Zr470       O476   2.375       .  S
Zr470       O475   2.365       .  S
Zr470       O480   2.349       .  S
Zr470       O478   2.362       .  S
O471        H487   0.990       .  S
O472        H486   0.990       .  S
O472        H496   0.988       .  S
Zr473       O476   2.383       .  S
Zr473       O478   2.405       .  S
Zr473       O479   2.376       .  S
Zr474       O475   2.410       .  S
Zr474       O477   2.379       .  S
Zr474       O480   2.377       .  S
O475        H483   0.966       .  S
O478        H482   0.966       .  S
O479        H484   0.965       .  S
C497        C498   1.406       .  A
C497        C502   1.412       .  A
C498        C499   1.408       .  A
C498        H503   1.085       .  S
C499        C500   1.413       .  A
C499        C506   1.443       .  S
C500        C501   1.406       .  A
C501        C502   1.408       .  A
C501        H504   1.085       .  S
C502        C505   1.443       .  S
C505        N507   1.157       .  T
C506        N508   1.157       .  T
C509        C510   1.403       .  A
C509        C514   1.411       .  A
C510        C511   1.406       .  A
C510        H515   1.085       .  S
C511        C512   1.415       .  A
C511        C518   1.444       .  S
C512        C513   1.407       .  A
C513        C514   1.407       .  A
C513        H516   1.085       .  S
C514        C517   1.443       .  S
C517        N519   1.157       .  T
C518        N520   1.157       .  T
C521        C522   1.399       .  A
C521        C526   1.421       .  A
C522        C523   1.409       .  A
C522        H527   1.085       .  S
C523        C524   1.429       .  A
C523        C530   1.444       .  S
C524        C525   1.400       .  A
C525        C526   1.407       .  A
C525        H528   1.079       .  S
C526        C529   1.444       .  S
C529        N531   1.157       .  T
C530        N532   1.157       .  T
C533        C534   1.408       .  A
C533        C538   1.411       .  A
C534        C535   1.386       .  A
C534        H539   1.082       .  S
C535        C536   1.406       .  A
C535        C542   1.447       .  S
C536        C537   1.416       .  A
C537        C538   1.422       .  A
C537        H540   1.084       .  S
C538        C541   1.441       .  S
C541        N543   1.157       .  T
C542        N544   1.157       .  T
C545        C550   1.417       .  A
C545       C1426   1.410       .  A
C546        C547   1.397       .  A
C546       C1425   1.410   1_545  A
C546        H551   1.085       .  S
C547       C1428   1.407   1_545  A
C547        C554   1.445       .  S
C548        C549   1.408       .  A
C548       C1427   1.407       .  A
C549        C550   1.416       .  A
C549        H552   1.084       .  S
C550        C553   1.443       .  S
C553        N555   1.157       .  T
C554        N556   1.157       .  T
C557        C558   1.405       .  A
C557        C562   1.408       .  A
C558        C559   1.408       .  A
C558        H563   1.085       .  S
C559        C560   1.414       .  A
C559        C566   1.442       .  S
C560       C1441   1.408       .  A
C561       C1440   1.408       .  A
C561       C1442   1.403       .  A
C561        H564   1.085       .  S
C562       C1441   1.403       .  A
C562       C1445   1.444   1_545  S
C565       C1442   1.444       .  S
C565        N567   1.157       .  T
C566        N568   1.157       .  T
C569        C570   1.409       .  A
C569        C574   1.433       .  A
C570        C571   1.418       .  A
C570        H575   1.084       .  S
C571        C572   1.418       .  A
C571        C578   1.443       .  S
C572        C573   1.390       .  A
C573        C574   1.396       .  A
C573        H576   1.087       .  S
C574        C577   1.444   1_556  S
C577        N579   1.157       .  T
C578        N580   1.157       .  T
C581        C582   1.395       .  A
C581        C586   1.415       .  A
C582        C583   1.407       .  A
C582        H587   1.084       .  S
C583        C584   1.427       .  A
C583        C590   1.442       .  S
C584        C585   1.399       .  A
C585        C586   1.413       .  A
C585        H588   1.084       .  S
C586        C589   1.429       .  S
C589        N591   1.154       .  T
C590        N592   1.157       .  T
C593        C594   1.405       .  A
C593        C598   1.418       .  A
C594        C595   1.406       .  A
C594        H599   1.085       .  S
C595        C596   1.419       .  A
C595        C602   1.444       .  S
C596        C597   1.404       .  A
C597        C598   1.403       .  A
C597        H600   1.081       .  S
C598        C601   1.445       .  S
C601        N603   1.157       .  T
C602        N604   1.157       .  T
C605        C606   1.407       .  A
C605        C610   1.422       .  A
C606        C607   1.410       .  A
C606        H611   1.084       .  S
C607        C608   1.420       .  A
C607        C614   1.444       .  S
C608        C609   1.406       .  A
C609        C610   1.411       .  A
C609        H612   1.084       .  S
C610        C613   1.443       .  S
C613        N615   1.157       .  T
C614        N616   1.157       .  T
C617        C618   1.395       .  A
C617        C622   1.416       .  A
C618        C619   1.395       .  A
C618        H623   1.085       .  S
C619        C620   1.421       .  A
C619        C626   1.444       .  S
C620        C621   1.394       .  A
C621        C622   1.385       .  A
C621        H624   1.086       .  S
C622        C625   1.444       .  S
C625        N627   1.157       .  T
C626        N628   1.157       .  T
C629        C630   1.411       .  A
C629        C634   1.413       .  A
C630        C631   1.399       .  A
C630        H635   1.084       .  S
C631        C632   1.406       .  A
C631        C638   1.443       .  S
C632        C633   1.403       .  A
C633        C634   1.384       .  A
C633        H636   1.086       .  S
C634        C637   1.444       .  S
C637        N639   1.157       .  T
C638        N640   1.157       .  T
C641        C642   1.404       .  A
C641        C646   1.418       .  A
C642        C643   1.394       .  A
C642        H647   1.085       .  S
C643        C644   1.409       .  A
C643        C650   1.446       .  S
C644        C645   1.398       .  A
C645        C646   1.400       .  A
C645        H648   1.085       .  S
C646        C649   1.444       .  S
C649        N651   1.157       .  T
C650        N652   1.157       .  T
C653        C658   1.407       .  A
C653       C2414   1.405   1_455  A
C654        C655   1.407       .  A
C654       C2413   1.405       .  A
C654        H659   1.085       .  S
C655       C2416   1.414       .  A
C655        C662   1.443       .  S
C656        C657   1.408   1_655  A
C656       C2415   1.414       .  A
C657        C658   1.399       .  A
C657        H660   1.085       .  S
C658        C661   1.445       .  S
C661        N663   1.157       .  T
C662        N664   1.157       .  T
C665        C666   1.410       .  A
C665        C670   1.407       .  A
C666        C667   1.400       .  A
C666        H671   1.085       .  S
C667        C668   1.406       .  A
C667        C674   1.444       .  S
C668        C669   1.404       .  A
C669        C670   1.402       .  A
C669        H672   1.083       .  S
C670        C673   1.439       .  S
C673        N675   1.156       .  T
C674        N676   1.157       .  T
C677        C678   1.409       .  A
C677        C682   1.397       .  A
C678        C679   1.405       .  A
C678        H683   1.085       .  S
C679        C680   1.415       .  A
C679        C686   1.445       .  S
C680        C681   1.408       .  A
C681        C682   1.409       .  A
C681        H684   1.084       .  S
C682        C685   1.439       .  S
C685        N687   1.157       .  T
C686        N688   1.157       .  T
C689        C690   1.394       .  A
C689        C694   1.432   1_554  A
C690        C691   1.408       .  A
C690        H695   1.085       .  S
C691        C692   1.433       .  A
C691        C698   1.444       .  S
C692        C693   1.394   1_554  A
C693        C694   1.405       .  A
C693        H696   1.085       .  S
C694        C697   1.445       .  S
C697        N699   1.157       .  T
C698        N700   1.157       .  T
C701        C702   1.408       .  A
C701        C706   1.411       .  A
C702        C703   1.403   1_556  A
C702        H707   1.086   1_556  S
C703        C704   1.410   1_554  A
C703        C710   1.443       .  S
C704        C705   1.406       .  A
C705        C706   1.405       .  A
C705        H708   1.084       .  S
C706        C709   1.446       .  S
C709        N711   1.158       .  T
C710        N712   1.157       .  T
C713        C714   1.413       .  A
C713        C718   1.403       .  A
C714        C715   1.401       .  A
C714        H719   1.085       .  S
C715        C716   1.410       .  A
C715        C722   1.444       .  S
C716        C717   1.417       .  A
C717        C718   1.403       .  A
C717        H720   1.084       .  S
C718        C721   1.443       .  S
C721        N723   1.157       .  T
C722        N724   1.157       .  T
C725        C726   1.401       .  A
C725        C730   1.441       .  A
C726        C727   1.410       .  A
C726        H731   1.084       .  S
C727        C728   1.423       .  A
C727        C734   1.443       .  S
C728        C729   1.386       .  A
C729        C730   1.398       .  A
C729        H732   1.086       .  S
C730        C733   1.444       .  S
C733        N735   1.157       .  T
C734        N736   1.157       .  T
C737        C738   1.400       .  A
C737       C1622   1.410       .  A
C738        C739   1.391       .  A
C738        H743   1.085       .  S
C739       C1620   1.402       .  A
C739        C746   1.442       .  S
C740        C741   1.392   1_565  A
C740       C1619   1.402       .  A
C741        C742   1.384       .  A
C741        H744   1.083       .  S
C742       C1617   1.410   1_545  A
C742        C745   1.444       .  S
C745        N747   1.157       .  T
C746        N748   1.156       .  T
C749        C750   1.395       .  A
C749       C1634   1.420   1_545  A
C750        C751   1.391       .  A
C750        H755   1.085       .  S
C751       C1632   1.409       .  A
C751        C758   1.438       .  S
C752        C753   1.390       .  A
C752       C1631   1.409       .  A
C753        C754   1.390       .  A
C753        H756   1.086       .  S
C754       C1629   1.420       .  A
C754        C757   1.442       .  S
C757        N759   1.157       .  T
C758        N760   1.155       .  T
C761       C1825   1.504       .  S
C761        C762   1.406       .  A
C761        C766   1.420       .  A
C762        C763   1.409       .  A
C762       H2527   1.084       .  S
C763        C764   1.420       .  A
C763        C770   1.444       .  S
C764        C765   1.407       .  A
C765        C766   1.414       .  A
C765        H768   1.085       .  S
C766        C769   1.443       .  S
H767       C2522   1.084       .  S
C769        N771   1.157       .  T
C770       N2532   1.157       .  T
N772       C2530   1.157       .  T
C773       C1955   1.497       .  S
C773        C774   1.405       .  A
C773        C778   1.421       .  A
C774        C775   1.411       .  A
C774        H779   1.085       .  S
C775        C776   1.420       .  A
C775        C782   1.443       .  S
C776        C777   1.401       .  A
C777        C778   1.406       .  A
C777        H780   1.081       .  S
C778        C781   1.445       .  S
C781        N783   1.157       .  T
C782        N784   1.157       .  T
C785        C790   1.423       .  A
C785       C2546   1.408       .  A
C786        C787   1.394       .  A
C786       C2545   1.408       .  A
C786        H791   1.084   1_655  S
C787       C2548   1.405       .  A
C787        C794   1.445   1_655  S
C788       C1766   1.453       .  S
C788        C789   1.395       .  A
C788       C2547   1.405       .  A
C789        C790   1.389       .  A
C789        H792   1.086       .  S
C790        C793   1.447       .  S
C793        N795   1.158       .  T
C794        N796   1.157       .  T
C797        C802   1.404   1_545  A
C797       C2558   1.396       .  A
C798        C799   1.390       .  A
C798       C2557   1.396   1_455  A
C798        H803   1.086       .  S
C799        C800   1.414   1_455  A
C799        C806   1.446       .  S
C800       C2561   1.402   1_545  A
C801        C802   1.389       .  A
C801       C2560   1.402   1_565  A
C801        H804   1.085       .  S
C802       C1685   1.445       .  S
C805       C1682   1.445       .  S
C805        N807   1.157       .  T
C806        N808   1.157       .  T
C809        C810   1.392       .  A
C809        C814   1.412   1_554  A
C810        C811   1.397       .  A
C810        H815   1.086       .  S
C811        C812   1.423   1_554  A
C811        C818   1.433       .  S
C812        C813   1.418       .  A
C813        C814   1.415       .  A
C813        H816   1.084       .  S
C814        C817   1.442       .  S
C817        N819   1.157       .  T
C818        N820   1.155       .  T
C821        C822   1.424       .  A
C821        C826   1.396       .  A
C822        C823   1.414       .  A
C822        H827   1.084       .  S
C823        C824   1.407   1_554  A
C823        C830   1.441       .  S
C824        C825   1.417       .  A
C825        C826   1.395   1_556  A
C825        H828   1.074       .  S
C826        C829   1.442       .  S
C829        N831   1.156       .  T
C830        N832   1.157       .  T
C833        C834   1.410   1_554  A
C833        C838   1.425       .  A
C834        C835   1.420       .  A
C834        H839   1.084       .  S
C835        C836   1.425   1_556  A
C835        C842   1.444       .  S
C836       C1717   1.419       .  A
C837       C1716   1.419       .  A
C837       C1718   1.439       .  A
C837        H840   1.084       .  S
C838       C1717   1.439       .  A
C838       C1721   1.441       .  S
C841       C1718   1.441       .  S
C841        N843   1.157       .  T
C842        N844   1.157       .  T
C845        C846   1.425       .  A
C845       C1730   1.423       .  A
C846        C847   1.444       .  A
C846        H851   1.083       .  S
C847        C848   1.419       .  A
C847        C854   1.438       .  S
C848       C1729   1.411       .  A
C849        C850   1.407       .  A
C849       C1728   1.411   1_545  A
C849        H852   1.085       .  S
C850       C1725   1.423   1_545  A
C850        C853   1.444       .  S
C853        N855   1.157       .  T
C854        N856   1.157       .  T
C857        C858   1.388       .  A
C857       C2622   1.399   1_556  A
C858        C859   1.381   1_556  A
C858        H863   1.087       .  S
C859       C2620   1.418       .  A
C859        C866   1.443   1_554  S
C860        C861   1.402       .  A
C860       C2619   1.419       .  A
C861        C862   1.387   1_655  A
C861        H864   1.086   1_655  S
C862       C2617   1.399   1_454  A
C862        C865   1.441       .  S
C865        N867   1.156       .  T
C866        N868   1.157       .  T
C869        C870   1.400       .  A
C869       C2634   1.397       .  A
C870        C871   1.383       .  A
C870        H875   1.081       .  S
C871        C872   1.400       .  A
C871        C878   1.446   1_556  S
C872       C2633   1.408       .  A
C873        C874   1.391       .  A
C873       C2632   1.408       .  A
C873        H876   1.083       .  S
C874       C2629   1.397       .  A
C874        C877   1.444       .  S
C877        N879   1.157       .  T
C878        N880   1.157       .  T
O881       Zr893   2.377   1_554  S
O881        C883   1.260       .  A
O882      Zr2679   2.520       .  S
O882        C883   1.302       .  A
C883       C1701   1.498       .  S
O884       Zr896   2.428   1_655  S
O885       Zr920   2.386       .  S
O885        C886   1.280       .  A
C886       C3428   1.453       .  S
O887       Zr896   2.437       .  S
O887       C2649   1.284       .  A
O888       Zr919   2.359   1_556  S
O888        C889   1.274       .  A
C889       O2647   1.284       .  A
C889       C1749   1.433       .  S
O890       Zr893   2.398       .  S
O891       Zr920   2.578   1_455  S
O891        C892   1.314       .  A
C892       C1728   1.542       .  S
Zr893       O894   2.437       .  S
Zr893       O895   2.437   1_556  S
Zr893       O899   2.379       .  S
Zr893       O900   2.373       .  S
Zr893       O925   2.391   1_556  S
O894        H937   0.990       .  S
O895        H936   0.990       .  S
O895        H940   0.990       .  S
Zr896       O897   2.434       .  S
Zr896      O2658   2.434   1_455  S
Zr896       O900   2.374       .  S
Zr896       O899   2.361       .  S
Zr896      O2684   2.381   1_455  S
Zr896      O1806   2.366   1_455  S
O897        H938   0.990       .  S
O897        H941   0.990       .  S
O898      Zr2656   2.434       .  S
O898        H931   0.990       .  S
O899      Zr2679   2.396   1_556  S
O900        H927   0.966       .  S
O901       Zr913   2.466       .  S
O901       C2663   1.293       .  A
O902       Zr920   2.326       .  S
O902        C903   1.270   1_556  A
C903       O2661   1.293       .  A
C903       C1740   1.438       .  S
O904       Zr916   2.412   1_544  S
O905       Zr919   2.592       .  S
O905        C906   1.319       .  A
C906       C1716   1.544       .  S
O907       Zr916   2.392       .  S
O907        C909   1.264       .  A
O908      Zr2680   2.508       .  S
O908        C909   1.288       .  A
C909       C1692   1.510       .  S
O910       Zr913   2.427       .  S
O911       Zr919   2.386       .  S
O911        C912   1.282       .  A
C912       C1677   1.442       .  S
Zr913       O914   2.433       .  S
Zr913      O2675   2.434       .  S
Zr913       O921   2.310       .  S
Zr913       O922   2.391       .  S
Zr913      O1805   2.330   1_565  S
Zr913      O2683   2.378       .  S
O914        H934   0.990       .  S
O914        H939   0.990       .  S
O915      Zr2673   2.434   1_455  S
O915        H935   0.990       .  S
Zr916       O917   2.431   1_556  S
Zr916       O918   2.440       .  S
Zr916       O922   2.364   1_556  S
Zr916       O921   2.369   1_556  S
Zr916       O926   2.393       .  S
O917        H933   0.990       .  S
O918        H932   0.989       .  S
O918        H942   0.990       .  S
Zr919      O2642   2.519       .  S
Zr919      O2659   2.396   1_554  S
Zr919       O924   2.384   1_554  S
Zr919      O2685   2.407       .  S
Zr920      O2668   2.507       .  S
Zr920      O2681   2.409   1_556  S
Zr920       O923   2.386   1_656  S
Zr920      O2686   2.418       .  S
O921      Zr2680   2.410   1_554  S
O921        H929   0.953       .  S
O923      Zr2673   2.378   1_455  S
O924      Zr2656   2.380       .  S
O924        H928   0.964       .  S
O925      Zr1793   2.330   1_455  S
O925      Zr2679   2.407       .  S
O925        H930   0.965       .  S
O926      Zr1776   2.366   1_565  S
O926      Zr2680   2.418       .  S
O943       Zr955   2.395       .  S
O943       C2705   1.267       .  A
O944        C945   1.297   1_455  A
C945       O2703   1.267       .  A
C945       C3401   1.504       .  S
O946       Zr958   2.427       .  S
O946        C948   1.285       .  A
O947       Zr982   2.372       .  S
O947        C948   1.278       .  A
C948       C1620   1.439       .  S
O949       Zr958   2.433       .  S
O949       C2711   1.288       .  A
O950       Zr981   2.383       .  S
O950        C951   1.282   1_455  A
C951       O2709   1.288       .  A
C951       C1680   1.456       .  S
O952       Zr955   2.385       .  S
O952        C954   1.279       .  A
O953        C954   1.294       .  A
C954       C1593   1.488       .  S
Zr955       O956   2.436       .  S
Zr955       O957   2.435       .  S
Zr955       O961   2.368       .  S
Zr955       O962   2.349       .  S
Zr955       O985   2.358       .  S
Zr955      O2747   2.372       .  S
O956        H999   0.990       .  S
O957        H998   0.989       .  S
O957       H1002   0.989       .  S
Zr958       O960   2.435       .  S
Zr958      O2746   2.353       .  S
Zr958       O988   2.371       .  S
O959       H1000   0.990       .  S
O959       H1003   0.990       .  S
O960        H993   0.990       .  S
O961      Zr1861   2.397       .  S
O962        H989   0.966       .  S
O963      Zr1855   2.454       .  S
O963        C965   1.293       .  A
O964        C965   1.278       .  A
C965       C1665   1.478       .  S
O966       Zr978   2.358       .  S
O966        C968   1.261       .  A
O967       Zr981   2.552       .  S
O967        C968   1.308       .  A
C968       C1605   1.511       .  S
O969      Zr2738   2.385       .  S
O969        C971   1.267       .  A
O970       Zr982   2.516       .  S
O970        C971   1.299       .  A
C971       C1656   1.493       .  S
O972       Zr975   2.491       .  S
O972        C974   1.299       .  A
O973       Zr981   2.337       .  S
O973        C974   1.273       .  A
C974       C1629   1.458       .  S
Zr975      O1843   2.454       .  S
Zr975       O976   2.434       .  S
Zr975      O2743   2.368       .  S
Zr975       O984   2.367       .  S
Zr975      O1865   2.372   1_455  S
O976        H996   0.990       .  S
O976       H1001   0.990       .  S
O977       H2757   0.990       .  S
Zr978      O2729   2.385       .  S
Zr978       O979   2.435       .  S
Zr978       O980   2.434       .  S
Zr978       O984   2.372       .  S
Zr978      O2743   2.367       .  S
Zr978      O2748   2.354   1_455  S
Zr978       O986   2.367   1_455  S
O979        H995   0.990       .  S
O980       H2754   0.989   1_455  S
O980       H1004   0.989       .  S
Zr981      O1841   2.397   1_455  S
Zr981       O984   2.382       .  S
Zr981       O986   2.374   1_455  S
Zr982       O983   2.384       .  S
Zr982       O988   2.364       .  S
O983      Zr2735   2.368       .  S
O983      Zr2738   2.367       .  S
O983        H991   0.965       .  S
O985      Zr1855   2.372       .  S
O986      Zr2718   2.353       .  S
O986        H990   0.964       .  S
O987      Zr2715   2.372   1_455  S
O987        H992   0.964       .  S
O988      Zr2738   2.354       .  S
H994       O2740   0.989       .  S
H997       O2737   0.990       .  S
O1005     Zr1017   2.385       .  S
O1005      C1007   1.275       .  A
O1006     Zr2803   2.487       .  S
O1006      C1007   1.297       .  A
C1007      C1581   1.476       .  S
O1008     Zr1020   2.467       .  S
O1008      C1010   1.292       .  A
O1009     Zr1044   2.414       .  S
O1009      C1010   1.287       .  A
C1010      C1536   1.487       .  S
O1011     Zr2780   2.457       .  S
O1011      C1013   1.291   1_554  A
O1012     Zr1043   2.327       .  S
O1012      C1013   1.272       .  A
C1013      C1752   1.438       .  S
O1014     Zr1017   2.380   1_554  S
O1014      C1016   1.279       .  A
O1015     Zr1044   2.458   1_455  S
O1015      C1016   1.290       .  A
C1016      C1557   1.474       .  S
Zr1017     O1018   2.433   1_556  S
Zr1017     O1019   2.435       .  S
Zr1017     O1023   2.348   1_556  S
Zr1017     O1024   2.373   1_556  S
Zr1017     O1047   2.340       .  S
Zr1017     O1049   2.362       .  S
O1018      H1061   0.991       .  S
O1019      H1060   0.990       .  S
O1019      H1064   0.990       .  S
Zr1020     O2771   2.457   1_655  S
Zr1020     O1021   2.436   1_655  S
Zr1020     O2782   2.433       .  S
Zr1020     O1024   2.362   1_655  S
Zr1020     O1023   2.369   1_655  S
Zr1020     O2808   2.377   1_554  S
Zr1020     O2810   2.388       .  S
O1021      H1062   0.990       .  S
O1021      H1065   0.990       .  S
O1022     Zr2780   2.433       .  S
O1022      H1055   0.988       .  S
O1023     Zr2803   2.367   1_554  S
O1024     Zr1044   2.384   1_455  S
O1024      H1051   0.964       .  S
O1025     Zr1037   2.440       .  S
O1025      C1027   1.286       .  A
O1026     Zr1044   2.325       .  S
O1026      C2787   1.269   1_554  A
C1027      O2786   1.269   1_556  A
C1027      C1737   1.423       .  S
O1028     Zr1040   2.410       .  S
O1028      C1030   1.270       .  A
O1029     Zr1043   2.459       .  S
O1029      C1030   1.282       .  A
C1030      C1545   1.481       .  S
O1031     Zr1040   2.401   1_554  S
O1031      C1033   1.277       .  A
O1032     Zr2804   2.519       .  S
O1032      C1033   1.305       .  A
C1033      C1569   1.503       .  S
O1034     Zr1037   2.432       .  S
O1034      C1036   1.285       .  A
O1035     Zr1043   2.412       .  S
O1035      C1036   1.287       .  A
C1036      C1521   1.478       .  S
Zr1037     O1038   2.445       .  S
Zr1037     O2799   2.434       .  S
Zr1037     O1045   2.361       .  S
Zr1037     O1046   2.354       .  S
Zr1037     O2809   2.375       .  S
Zr1037     O2807   2.363       .  S
O1038      H1058   0.990       .  S
O1038      H1063   0.990       .  S
O1039     Zr2797   2.434       .  S
O1039      H1059   0.990       .  S
Zr1040     O1041   2.437       .  S
Zr1040     O1042   2.440   1_556  S
Zr1040     O1046   2.368       .  S
Zr1040     O1045   2.374       .  S
Zr1040     O1050   2.373   1_556  S
Zr1040     O1048   2.365       .  S
O1041      H1057   0.990       .  S
O1042      H1056   0.990       .  S
O1042      H1066   0.989   1_554  S
Zr1043     O2766   2.485       .  S
Zr1043     O2783   2.367   1_556  S
Zr1043     O1046   2.372       .  S
Zr1043     O1048   2.414       .  S
Zr1043     O2809   2.386       .  S
Zr1044     O2792   2.519       .  S
Zr1044     O2805   2.379   1_554  S
Zr1044     O1047   2.397   1_654  S
Zr1044     O2810   2.378       .  S
O1045     Zr2804   2.379   1_556  S
O1045      H1053   0.961       .  S
O1047     Zr2797   2.363       .  S
O1048     Zr2780   2.377   1_556  S
O1048      H1052   0.966       .  S
O1049     Zr2797   2.375       .  S
O1049     Zr2803   2.386       .  S
O1049      H1054   0.966       .  S
O1050     Zr2780   2.388       .  S
O1050     Zr2804   2.378       .  S
O1067     Zr1079   2.463       .  S
O1067      C1069   1.291       .  A
O1068     Zr1105   2.353       .  S
O1068      C1069   1.279       .  A
C1069      C1512   1.466       .  S
O1070     Zr1082   2.380       .  S
O1070      C1072   1.259       .  A
O1071     Zr1106   2.494       .  S
O1071      C1072   1.290       .  A
C1072      C1476   1.491       .  S
O1073     Zr1082   2.376       .  S
O1073      C2835   1.264       .  A
O1074     Zr1105   2.517       .  S
O1074      C1075   1.297   1_455  A
C1075      O2833   1.264       .  A
C1075      C3413   1.497       .  S
O1076     Zr2839   2.414       .  S
O1076      C1078   1.284       .  A
O1077     Zr1106   2.432       .  S
O1077      C1078   1.290       .  A
C1078      C1524   1.461       .  S
Zr1079     O2836   2.415   1_455  S
Zr1079     O1080   2.434       .  S
Zr1079     O1081   2.436       .  S
Zr1079     O1085   2.366       .  S
Zr1079     O2846   2.356   1_455  S
Zr1079     O2869   2.386       .  S
Zr1079     O1111   2.334       .  S
O1080      H1123   0.990       .  S
O1081      H1122   0.990       .  S
O1081      H1126   0.990       .  S
Zr1082     O1083   2.435       .  S
Zr1082     O1084   2.430       .  S
Zr1082     O1086   2.383       .  S
Zr1082     O2845   2.355       .  S
Zr1082     O1110   2.376       .  S
Zr1082     O1112   2.371       .  S
O1083      H1124   0.989       .  S
O1083      H1127   0.990       .  S
O1084      H1117   0.990       .  S
O1085     Zr2842   2.355   1_455  S
O1085     Zr1105   2.387       .  S
O1086     Zr2839   2.356       .  S
O1086     Zr1106   2.407       .  S
O1086      H1113   0.966       .  S
O1087     Zr2859   2.393       .  S
O1087      C1089   1.273       .  A
O1088     Zr1106   2.519       .  S
O1088      C1089   1.301       .  A
C1089      C1644   1.500       .  S
O1090     Zr1102   2.442       .  S
O1090      C2852   1.289       .  A
O1091     Zr1105   2.443       .  S
O1091      C1092   1.292       .  A
C1092      O2850   1.289   1_455  A
C1092      C1533   1.475       .  S
O1093     Zr1102   2.487       .  S
O1093      C1095   1.298       .  A
O1094     Zr1106   2.336       .  S
O1094      C1095   1.276       .  A
C1095      C1497   1.459       .  S
O1096     Zr1099   2.396       .  S
O1096      C1098   1.265       .  A
O1097     Zr1105   2.497       .  S
O1097      C1098   1.289       .  A
C1098      C1485   1.508       .  S
Zr1099     O2847   2.392       .  S
Zr1099     O1100   2.438       .  S
Zr1099     O1101   2.430       .  S
Zr1099     O2867   2.358   1_455  S
Zr1099     O1108   2.383       .  S
Zr1099     O1111   2.366       .  S
Zr1099     O2869   2.364       .  S
O1100      H2880   0.990       .  S
O1100      H1125   0.990       .  S
O1101      H1121   0.990       .  S
Zr1102     O1103   2.435       .  S
Zr1102     O1104   2.433       .  S
Zr1102     O2868   2.373       .  S
Zr1102     O1107   2.354       .  S
Zr1102     O1112   2.349       .  S
Zr1102     O1110   2.372       .  S
O1103      H1119   0.990       .  S
O1104      H1118   0.989       .  S
O1104      H1128   0.990       .  S
Zr1105     O1108   2.408       .  S
Zr1105     O2870   2.389   1_455  S
Zr1105     O1111   2.408       .  S
Zr1106     O1107   2.392       .  S
Zr1106     O1109   2.378       .  S
Zr1106     O1112   2.391       .  S
O1107     Zr2859   2.358       .  S
O1107      H1115   0.965       .  S
O1108     Zr2862   2.373   1_455  S
O1109     Zr2839   2.386       .  S
O1109     Zr2859   2.364       .  S
O1110     Zr2865   2.389       .  S
O1110      H1114   0.965       .  S
O1111      H1116   0.960       .  S
H1120      O2860   0.990       .  S
O1129     Zr1141   2.386       .  S
O1129      C1131   1.276       .  A
O1130     Zr1167   2.485   1_554  S
O1130      C1131   1.299       .  A
C1131      C1560   1.473       .  S
O1132     Zr1144   2.390   1_554  S
O1132      C1134   1.279       .  A
O1133     Zr1168   2.539       .  S
O1133      C1134   1.310       .  A
C1134      C1464   1.505       .  S
O1135     Zr1144   2.455       .  S
O1136     Zr1167   2.540       .  S
O1136      C1137   1.307       .  A
C1137      C1725   1.548       .  S
O1138     Zr1141   2.431       .  S
O1139     Zr1168   2.456       .  S
O1139      C1140   1.292       .  A
C1140      C1437   1.480       .  S
Zr1141     O1142   2.434       .  S
Zr1141     O1143   2.433       .  S
Zr1141     O1147   2.381       .  S
Zr1141     O1171   2.363       .  S
Zr1141     O1173   2.372       .  S
O1142      H1185   0.991       .  S
O1143      H1184   0.990       .  S
O1143      H1188   0.990       .  S
Zr1144     O1145   2.431   1_556  S
Zr1144     O1146   2.433       .  S
Zr1144     O1148   2.384   1_556  S
Zr1144     O1172   2.350       .  S
Zr1144     O1174   2.388       .  S
O1145      H1186   0.989       .  S
O1145      H1189   0.990       .  S
O1146      H1179   0.990       .  S
O1147     Zr1167   2.377   1_554  S
O1148     Zr1168   2.401       .  S
O1148      H1175   0.964       .  S
O1149      C1151   1.294       .  A
O1150     Zr1168   2.549       .  S
O1150      C1151   1.311       .  A
C1151      C1713   1.545       .  S
O1152     Zr1164   2.426       .  S
O1153     Zr1167   2.470       .  S
O1153      C1154   1.296       .  A
C1154      C1425   1.500       .  S
O1155     Zr1164   2.435       .  S
O1155      C1157   1.286       .  A
O1156     Zr1168   2.441   1_556  S
O1156      C1157   1.292       .  A
C1157      C1548   1.471       .  S
O1158     Zr1161   2.440       .  S
O1158      C1160   1.280       .  A
O1159     Zr1167   2.466       .  S
O1159      C1160   1.294       .  A
C1160      C1452   1.490       .  S
Zr1161     O1162   2.440       .  S
Zr1161     O1163   2.434   1_556  S
Zr1161     O1170   2.378       .  S
Zr1161     O1173   2.394   1_556  S
Zr1161     O1171   2.382   1_556  S
O1162      H1187   0.990       .  S
O1163      H1183   0.990       .  S
Zr1164     O1165   2.434       .  S
Zr1164     O1166   2.434       .  S
Zr1164     O1169   2.374       .  S
Zr1164     O1174   2.365       .  S
Zr1164     O1172   2.375       .  S
O1165      H1181   0.990       .  S
O1166      H1180   0.990       .  S
O1166      H1190   0.990       .  S
Zr1167     O1170   2.411       .  S
Zr1167     O1173   2.440   1_556  S
Zr1168     O1169   2.406   1_554  S
Zr1168     O1174   2.416   1_554  S
O1169      H1177   0.964       .  S
O1172      H1176   0.966       .  S
O1173      H1178   0.966       .  S
O1191     Zr1203   2.380       .  S
O1191      C1193   1.270       .  A
O1192      C1193   1.303       .  A
C1193      C1413   1.495       .  S
O1194      C1196   1.299       .  A
O1195      C1196   1.288       .  A
C1196      C1440   1.492       .  S
O1197     Zr1206   2.464       .  S
O1197      C1199   1.293       .  A
O1198     Zr1229   2.365       .  S
O1198      C1199   1.278   1_565  A
C1199      C1632   1.450       .  S
O1200     Zr1203   2.382       .  S
O1200      C1202   1.258       .  A
O1201      C1202   1.289       .  A
C1202      C1473   1.484       .  S
Zr1203     O1204   2.438       .  S
Zr1203     O1205   2.439       .  S
Zr1203     O1209   2.337       .  S
Zr1203     O1210   2.378       .  S
Zr1203     O1233   2.376       .  S
Zr1203     O1235   2.385       .  S
O1204      H1247   0.990       .  S
O1205      H1246   0.990       .  S
O1205      H1250   0.990       .  S
Zr1206     O1208   2.436   1_545  S
Zr1206     O1234   2.364   1_545  S
Zr1206     O1236   2.376   1_545  S
O1207      H1248   0.990       .  S
O1207      H1251   0.990       .  S
O1208      H1241   0.990       .  S
O1210      H1237   0.966       .  S
O1211     Zr1223   2.449       .  S
O1211      C1213   1.289   1_565  A
O1212     Zr1230   2.352       .  S
O1212      C1213   1.276       .  A
C1213      C1617   1.442   1_545  S
O1214     Zr1226   2.391       .  S
O1214      C1216   1.265       .  A
O1215     Zr1229   2.489       .  S
O1215      C1216   1.287       .  A
C1216      C1488   1.503       .  S
O1217     Zr1226   2.402       .  S
O1217      C1219   1.279       .  A
O1218     Zr1230   2.494   1_565  S
O1218      C1219   1.299       .  A
C1219      C1401   1.497       .  S
O1220     Zr1223   2.470       .  S
O1220      C1222   1.294       .  A
O1221     Zr1229   2.437       .  S
O1221      C1222   1.290       .  A
C1222      C1428   1.486       .  S
Zr1223     O1224   2.435       .  S
Zr1223     O1231   2.374       .  S
Zr1223     O1232   2.362       .  S
O1224      H1244   0.990       .  S
O1224      H1249   0.990       .  S
O1225      H1245   0.990       .  S
Zr1226     O1227   2.432       .  S
Zr1226     O1228   2.430       .  S
Zr1226     O1232   2.390       .  S
Zr1226     O1231   2.356       .  S
Zr1226     O1236   2.359       .  S
Zr1226     O1234   2.377       .  S
O1227      H1243   0.990       .  S
O1228      H1242   0.990       .  S
O1228      H1252   0.989       .  S
Zr1229     O1232   2.406       .  S
Zr1229     O1234   2.431       .  S
Zr1230     O1231   2.388   1_545  S
Zr1230     O1236   2.380   1_545  S
O1231      H1239   0.965       .  S
O1234      H1238   0.962       .  S
O1235      H1240   0.964       .  S
O1253     Zr1265   2.529       .  S
O1253      C1255   1.304       .  A
O1254     Zr1291   2.427   1_554  S
O1254      C1255   1.290       .  A
C1255      C1461   1.502       .  S
O1256     Zr1268   2.367       .  S
O1256      C1258   1.270   1_556  A
O1257     Zr1292   2.493       .  S
O1257      C1258   1.297       .  A
C1258      C1584   1.478   1_554  S
O1259     Zr1268   2.388       .  S
O1259      C1261   1.253       .  A
O1260     Zr1291   2.529       .  S
O1260      C1261   1.292       .  A
C1261      C1704   1.508       .  S
O1262     Zr1265   2.460       .  S
O1262      C1264   1.292       .  A
O1263     Zr1292   2.441       .  S
O1263      C1264   1.291       .  A
C1264      C1389   1.484       .  S
Zr1265     O1266   2.434       .  S
Zr1265     O1267   2.436       .  S
Zr1265     O1271   2.365       .  S
Zr1265     O1272   2.405       .  S
Zr1265     O1295   2.383       .  S
Zr1265     O1297   2.352       .  S
O1266      H1309   0.990       .  S
O1267      H1308   0.990       .  S
O1267      H1312   0.990       .  S
Zr1268     O1269   2.435   1_556  S
Zr1268     O1270   2.437       .  S
Zr1268     O1272   2.381   1_556  S
Zr1268     O1271   2.383   1_556  S
Zr1268     O1296   2.376       .  S
Zr1268     O1298   2.342       .  S
O1269      H1310   0.988       .  S
O1269      H1313   0.990       .  S
O1270      H1303   0.990       .  S
O1271     Zr1291   2.402   1_554  S
O1272     Zr1292   2.394       .  S
O1272      H1299   0.966       .  S
O1273     Zr1285   2.411       .  S
O1273      C1275   1.268       .  A
O1274     Zr1292   2.465       .  S
O1274      C1275   1.276       .  A
C1275      C1689   1.495       .  S
O1276     Zr1288   2.476       .  S
O1276      C1278   1.297       .  A
O1277     Zr1291   2.462       .  S
O1277      C1278   1.298       .  A
C1278      C1380   1.491       .  S
O1279     Zr1288   2.557       .  S
O1279      C1281   1.311       .  A
O1280     Zr1292   2.366   1_556  S
O1280      C1281   1.277       .  A
C1281      C1449   1.512       .  S
O1282     Zr1285   2.387       .  S
O1282      C1284   1.276   1_554  A
O1283     Zr1291   2.533       .  S
O1283      C1284   1.309       .  A
C1284      C1572   1.503   1_556  S
Zr1285     O1286   2.432   1_554  S
Zr1285     O1287   2.419       .  S
Zr1285     O1293   2.373   1_554  S
Zr1285     O1294   2.361   1_554  S
Zr1285     O1297   2.356       .  S
Zr1285     O1295   2.377       .  S
O1286      H1306   0.985       .  S
O1286      H1311   0.988       .  S
O1287      H1307   0.990       .  S
Zr1288     O1289   2.434       .  S
Zr1288     O1290   2.435       .  S
Zr1288     O1294   2.412       .  S
Zr1288     O1293   2.340       .  S
Zr1288     O1298   2.352       .  S
Zr1288     O1296   2.366       .  S
O1289      H1305   0.990       .  S
O1290      H1304   0.990       .  S
O1290      H1314   0.990       .  S
Zr1291     O1294   2.410       .  S
Zr1291     O1296   2.434       .  S
Zr1291     O1297   2.379   1_556  S
Zr1292     O1293   2.422   1_554  S
Zr1292     O1295   2.407       .  S
Zr1292     O1298   2.365   1_554  S
O1293      H1301   0.962       .  S
O1296      H1300   0.965       .  S
O1297      H1302   0.962       .  S
O1315     Zr1327   2.381       .  S
O1315      C1317   1.276       .  A
O1316     Zr1353   2.506       .  S
O1316      C1317   1.304       .  A
C1317      C1608   1.489       .  S
O1318     Zr1330   2.468       .  S
O1318      C1320   1.294       .  A
O1319     Zr1354   2.441       .  S
O1319      C1320   1.291       .  A
C1320      C1377   1.491       .  S
O1321     Zr1330   2.420       .  S
O1321      C1323   1.285       .  A
O1322     Zr1353   2.409       .  S
O1322      C1323   1.286       .  A
C1323      C1509   1.474       .  S
O1324     Zr1327   2.399       .  S
O1324      C1326   1.278       .  A
O1325     Zr1354   2.484       .  S
O1325      C1326   1.298       .  A
C1326      C1416   1.480       .  S
Zr1327     O1328   2.436       .  S
Zr1327     O1329   2.435       .  S
Zr1327     O1333   2.363       .  S
Zr1327     O1334   2.360       .  S
Zr1327     O1357   2.355       .  S
Zr1327     O1359   2.377       .  S
O1328      H1371   0.990       .  S
O1329      H1370   0.990       .  S
O1329      H1374   0.990       .  S
Zr1330     O1331   2.434       .  S
Zr1330     O1332   2.433       .  S
Zr1330     O1334   2.364       .  S
Zr1330     O1333   2.379       .  S
Zr1330     O1358   2.387       .  S
Zr1330     O1360   2.342       .  S
O1331      H1372   0.990       .  S
O1331      H1375   0.990       .  S
O1332      H1365   0.990       .  S
O1333     Zr1353   2.403       .  S
O1334     Zr1354   2.386       .  S
O1334      H1361   0.966       .  S
O1335     Zr1347   2.378       .  S
O1335      C1337   1.275       .  A
O1336     Zr1354   2.437       .  S
O1336      C1337   1.293       .  A
C1337      C1500   1.465       .  S
O1338     Zr1350   2.405       .  S
O1338      C1340   1.280       .  A
O1339     Zr1353   2.506       .  S
O1339      C1340   1.304       .  A
C1340      C1404   1.510       .  S
O1341     Zr1350   2.423       .  S
O1341      C1343   1.280       .  A
O1342     Zr1354   2.458       .  S
O1342      C1343   1.292       .  A
C1343      C1596   1.495       .  S
O1344     Zr1347   2.451       .  S
O1344      C1346   1.289       .  A
O1345     Zr1353   2.443       .  S
O1345      C1346   1.290       .  A
C1346      C1392   1.490       .  S
Zr1347     O1348   2.434       .  S
Zr1347     O1349   2.434       .  S
Zr1347     O1355   2.378       .  S
Zr1347     O1356   2.343       .  S
Zr1347     O1359   2.346       .  S
Zr1347     O1357   2.383       .  S
O1348      H1368   0.990       .  S
O1348      H1373   0.990       .  S
O1349      H1369   0.990       .  S
Zr1350     O1351   2.435       .  S
Zr1350     O1352   2.435       .  S
Zr1350     O1356   2.375       .  S
Zr1350     O1355   2.365       .  S
Zr1350     O1360   2.349       .  S
Zr1350     O1358   2.362       .  S
O1351      H1367   0.990       .  S
O1352      H1366   0.990       .  S
O1352      H1376   0.988       .  S
Zr1353     O1356   2.383       .  S
Zr1353     O1358   2.405       .  S
Zr1353     O1359   2.376       .  S
Zr1354     O1355   2.410       .  S
Zr1354     O1357   2.379       .  S
Zr1354     O1360   2.377       .  S
O1355      H1363   0.966       .  S
O1358      H1362   0.966       .  S
O1359      H1364   0.965       .  S
C1377      C1378   1.406       .  A
C1377      C1382   1.412       .  A
C1378      C1379   1.408       .  A
C1378      H1383   1.085       .  S
C1379      C1380   1.413       .  A
C1379      C1386   1.443       .  S
C1380      C1381   1.406       .  A
C1381      C1382   1.408       .  A
C1381      H1384   1.085       .  S
C1382      C1385   1.443       .  S
C1385      N1387   1.157       .  T
C1386      N1388   1.157       .  T
C1389      C1390   1.403       .  A
C1389      C1394   1.411       .  A
C1390      C1391   1.406       .  A
C1390      H1395   1.085       .  S
C1391      C1392   1.415       .  A
C1391      C1398   1.444       .  S
C1392      C1393   1.407       .  A
C1393      C1394   1.407       .  A
C1393      H1396   1.085       .  S
C1394      C1397   1.443       .  S
C1397      N1399   1.157       .  T
C1398      N1400   1.157       .  T
C1401      C1402   1.399       .  A
C1401      C1406   1.421       .  A
C1402      C1403   1.409       .  A
C1402      H1407   1.085       .  S
C1403      C1404   1.429       .  A
C1403      C1410   1.444       .  S
C1404      C1405   1.400       .  A
C1405      C1406   1.407       .  A
C1405      H1408   1.079       .  S
C1406      C1409   1.444       .  S
C1409      N1411   1.157       .  T
C1410      N1412   1.157       .  T
C1413      C1414   1.408       .  A
C1413      C1418   1.411       .  A
C1414      C1415   1.386       .  A
C1414      H1419   1.082       .  S
C1415      C1416   1.406       .  A
C1415      C1422   1.447       .  S
C1416      C1417   1.416       .  A
C1417      C1418   1.422       .  A
C1417      H1420   1.084       .  S
C1418      C1421   1.441       .  S
C1421      N1423   1.157       .  T
C1422      N1424   1.157       .  T
C1425      C1430   1.417       .  A
C1426      C1427   1.397       .  A
C1426      H1431   1.085       .  S
C1427      C1434   1.445       .  S
C1428      C1429   1.408       .  A
C1429      C1430   1.416       .  A
C1429      H1432   1.084       .  S
C1430      C1433   1.443       .  S
C1433      N1435   1.157       .  T
C1434      N1436   1.157       .  T
C1437      C1438   1.405       .  A
C1437      C1442   1.408       .  A
C1438      C1439   1.408       .  A
C1438      H1443   1.085       .  S
C1439      C1440   1.414       .  A
C1439      C1446   1.442       .  S
C1441      H1444   1.085   1_545  S
C1445      N1447   1.157       .  T
C1446      N1448   1.157       .  T
C1449      C1450   1.409       .  A
C1449      C1454   1.433       .  A
C1450      C1451   1.418       .  A
C1450      H1455   1.084       .  S
C1451      C1452   1.418       .  A
C1451      C1458   1.443       .  S
C1452      C1453   1.390       .  A
C1453      C1454   1.396       .  A
C1453      H1456   1.087       .  S
C1454      C1457   1.444   1_556  S
C1457      N1459   1.157       .  T
C1458      N1460   1.157       .  T
C1461      C1462   1.395       .  A
C1461      C1466   1.415       .  A
C1462      C1463   1.407       .  A
C1462      H1467   1.084       .  S
C1463      C1464   1.427       .  A
C1463      C1470   1.442       .  S
C1464      C1465   1.399       .  A
C1465      C1466   1.413       .  A
C1465      H1468   1.084       .  S
C1466      C1469   1.429       .  S
C1469      N1471   1.154       .  T
C1470      N1472   1.157       .  T
C1473      C1474   1.405       .  A
C1473      C1478   1.418       .  A
C1474      C1475   1.406       .  A
C1474      H1479   1.085       .  S
C1475      C1476   1.419       .  A
C1475      C1482   1.444       .  S
C1476      C1477   1.404       .  A
C1477      C1478   1.403       .  A
C1477      H1480   1.081       .  S
C1478      C1481   1.445       .  S
C1481      N1483   1.157       .  T
C1482      N1484   1.157       .  T
C1485      C1486   1.407       .  A
C1485      C1490   1.422       .  A
C1486      C1487   1.410       .  A
C1486      H1491   1.084       .  S
C1487      C1488   1.420       .  A
C1487      C1494   1.444       .  S
C1488      C1489   1.406       .  A
C1489      C1490   1.411       .  A
C1489      H1492   1.084       .  S
C1490      C1493   1.443       .  S
C1493      N1495   1.157       .  T
C1494      N1496   1.157       .  T
C1497      C1498   1.395       .  A
C1497      C1502   1.416       .  A
C1498      C1499   1.395       .  A
C1498      H1503   1.085       .  S
C1499      C1500   1.421       .  A
C1499      C1506   1.444       .  S
C1500      C1501   1.394       .  A
C1501      C1502   1.385       .  A
C1501      H1504   1.086       .  S
C1502      C1505   1.444       .  S
C1505      N1507   1.157       .  T
C1506      N1508   1.157       .  T
C1509      C1510   1.411       .  A
C1509      C1514   1.413       .  A
C1510      C1511   1.399       .  A
C1510      H1515   1.084       .  S
C1511      C1512   1.406       .  A
C1511      C1518   1.443       .  S
C1512      C1513   1.403       .  A
C1513      C1514   1.384       .  A
C1513      H1516   1.086       .  S
C1514      C1517   1.444       .  S
C1517      N1519   1.157       .  T
C1518      N1520   1.157       .  T
C1521      C1522   1.404       .  A
C1521      C1526   1.418       .  A
C1522      C1523   1.394       .  A
C1522      H1527   1.085       .  S
C1523      C1524   1.409       .  A
C1523      C1530   1.446       .  S
C1524      C1525   1.398       .  A
C1525      C1526   1.400       .  A
C1525      H1528   1.085       .  S
C1526      C1529   1.444       .  S
C1529      N1531   1.157       .  T
C1530      N1532   1.157       .  T
C1533      C3294   1.405   1_455  A
C1533      C1538   1.407       .  A
C1534      C3293   1.405       .  A
C1534      C1535   1.407       .  A
C1534      H1539   1.085       .  S
C1535      C3296   1.414       .  A
C1535      C1542   1.443       .  S
C1536      C3295   1.414       .  A
C1536      C1537   1.408   1_655  A
C1537      C1538   1.399       .  A
C1537      H1540   1.085       .  S
C1538      C1541   1.445       .  S
C1541      N1543   1.157       .  T
C1542      N1544   1.157       .  T
C1545      C1546   1.410       .  A
C1545      C1550   1.407       .  A
C1546      C1547   1.400       .  A
C1546      H1551   1.085       .  S
C1547      C1548   1.406       .  A
C1547      C1554   1.444       .  S
C1548      C1549   1.404       .  A
C1549      C1550   1.402       .  A
C1549      H1552   1.083       .  S
C1550      C1553   1.439       .  S
C1553      N1555   1.156       .  T
C1554      N1556   1.157       .  T
C1557      C1558   1.409       .  A
C1557      C1562   1.397       .  A
C1558      C1559   1.405       .  A
C1558      H1563   1.085       .  S
C1559      C1560   1.415       .  A
C1559      C1566   1.445       .  S
C1560      C1561   1.408       .  A
C1561      C1562   1.409       .  A
C1561      H1564   1.084       .  S
C1562      C1565   1.439       .  S
C1565      N1567   1.157       .  T
C1566      N1568   1.157       .  T
C1569      C1570   1.394       .  A
C1569      C1574   1.432   1_554  A
C1570      C1571   1.408       .  A
C1570      H1575   1.085       .  S
C1571      C1572   1.433       .  A
C1571      C1578   1.444       .  S
C1572      C1573   1.394   1_554  A
C1573      C1574   1.405       .  A
C1573      H1576   1.085       .  S
C1574      C1577   1.445       .  S
C1577      N1579   1.157       .  T
C1578      N1580   1.157       .  T
C1581      C1582   1.406   1_556  A
C1581      C1586   1.410       .  A
C1582      C1583   1.402       .  A
C1582      H1587   1.085       .  S
C1583      C1584   1.409   1_554  A
C1583      C1590   1.444       .  S
C1584      C1585   1.408       .  A
C1585      C1586   1.407       .  A
C1585      H1588   1.084       .  S
C1586      C1589   1.443       .  S
C1589      N1591   1.157       .  T
C1590      N1592   1.157       .  T
C1593      C1594   1.413       .  A
C1593      C1598   1.403       .  A
C1594      C1595   1.401       .  A
C1594      H1599   1.085       .  S
C1595      C1596   1.410       .  A
C1595      C1602   1.444       .  S
C1596      C1597   1.417       .  A
C1597      C1598   1.403       .  A
C1597      H1600   1.084       .  S
C1598      C1601   1.443       .  S
C1601      N1603   1.157       .  T
C1602      N1604   1.157       .  T
C1605      C1606   1.401       .  A
C1605      C1610   1.441       .  A
C1606      C1607   1.410       .  A
C1606      H1611   1.084       .  S
C1607      C1608   1.423       .  A
C1607      C1614   1.443       .  S
C1608      C1609   1.386       .  A
C1609      C1610   1.398       .  A
C1609      H1612   1.086       .  S
C1610      C1613   1.444       .  S
C1613      N1615   1.157       .  T
C1614      N1616   1.157       .  T
C1617      C1618   1.400       .  A
C1618      C1619   1.391       .  A
C1618      H1623   1.085       .  S
C1619      C1626   1.442       .  S
C1620      C1621   1.392       .  A
C1621      C1622   1.384       .  A
C1621      H1624   1.083       .  S
C1622      C1625   1.444       .  S
C1625      N1627   1.157       .  T
C1626      N1628   1.156       .  T
C1629      C1630   1.395       .  A
C1630      C1631   1.391       .  A
C1630      H1635   1.085       .  S
C1631      C1638   1.438       .  S
C1632      C1633   1.390   1_545  A
C1633      C1634   1.390       .  A
C1633      H1636   1.086       .  S
C1634      C1637   1.442       .  S
C1637      N1639   1.157       .  T
C1638      N1640   1.155       .  T
C1641      C2705   1.504       .  S
C1641      C1642   1.406       .  A
C1641      C1646   1.420       .  A
C1642      C1643   1.409       .  A
C1642      H3407   1.084       .  S
C1643      C1644   1.420       .  A
C1643      C1650   1.444       .  S
C1644      C1645   1.407       .  A
C1645      C1646   1.414       .  A
C1645      H1648   1.085       .  S
C1646      C1649   1.443       .  S
H1647      C3402   1.084       .  S
C1649      N1651   1.157       .  T
C1650      N3412   1.157       .  T
N1652      C3410   1.157       .  T
C1653      C2835   1.497       .  S
C1653      C1654   1.405       .  A
C1653      C1658   1.421       .  A
C1654      C1655   1.411       .  A
C1654      H1659   1.085       .  S
C1655      C1656   1.420       .  A
C1655      C1662   1.443       .  S
C1656      C1657   1.401       .  A
C1657      C1658   1.405       .  A
C1657      H1660   1.081       .  S
C1658      C1661   1.445       .  S
C1661      N1663   1.157       .  T
C1662      N1664   1.157       .  T
C1665      C3426   1.408       .  A
C1665      C1670   1.423       .  A
C1666      C3425   1.408       .  A
C1666      C1667   1.394       .  A
C1666      H1671   1.084   1_655  S
C1667      C3428   1.405       .  A
C1667      C1674   1.445   1_655  S
C1668      C2646   1.453       .  S
C1668      C3427   1.405       .  A
C1668      C1669   1.395       .  A
C1669      C1670   1.389       .  A
C1669      H1672   1.086       .  S
C1670      C1673   1.447       .  S
C1673      N1675   1.158   1_565  T
C1674      N1676   1.157       .  T
C1677      C3438   1.396       .  A
C1677      C1682   1.404       .  A
C1678      C3437   1.396   1_455  A
C1678      C1679   1.390       .  A
C1678      H1683   1.086       .  S
C1679      C1680   1.414   1_455  A
C1679      C1686   1.446       .  S
C1680      C3441   1.402       .  A
C1681      C3440   1.402       .  A
C1681      C1682   1.389       .  A
C1681      H1684   1.085       .  S
C1685      N1687   1.157       .  T
C1686      N1688   1.157       .  T
C1689      C1690   1.393       .  A
C1689      C1694   1.412   1_554  A
C1690      C1691   1.397       .  A
C1690      H1695   1.086       .  S
C1691      C1692   1.423   1_554  A
C1691      C1698   1.434       .  S
C1692      C1693   1.418       .  A
C1693      C1694   1.415       .  A
C1693      H1696   1.084       .  S
C1694      C1697   1.442       .  S
C1697      N1699   1.157       .  T
C1698      N1700   1.155       .  T
C1701      C1702   1.424       .  A
C1701      C1706   1.396       .  A
C1702      C1703   1.415       .  A
C1702      H1707   1.084       .  S
C1703      C1704   1.407   1_554  A
C1703      C1710   1.441       .  S
C1704      C1705   1.417       .  A
C1705      C1706   1.395   1_556  A
C1705      H1708   1.074       .  S
C1706      C1709   1.442       .  S
C1709      N1711   1.156       .  T
C1710      N1712   1.157       .  T
C1713      C1714   1.410   1_554  A
C1713      C1718   1.425       .  A
C1714      C1715   1.421       .  A
C1714      H1719   1.084       .  S
C1715      C1716   1.425   1_556  A
C1715      C1722   1.444       .  S
C1717      H1720   1.084       .  S
C1721      N1723   1.157       .  T
C1722      N1724   1.157       .  T
C1725      C1726   1.425       .  A
C1726      C1727   1.444       .  A
C1726      H1731   1.083       .  S
C1727      C1728   1.419       .  A
C1727      C1734   1.438       .  S
C1729      C1730   1.407       .  A
C1729      H1732   1.085       .  S
C1730      C1733   1.444       .  S
C1733      N1735   1.157       .  T
C1734      N1736   1.157       .  T
C1737      C1738   1.388       .  A
C1737      C3502   1.399   1_556  A
C1738      C1739   1.381   1_556  A
C1738      H1743   1.087       .  S
C1739      C3500   1.418       .  A
C1739      C1746   1.443   1_554  S
C1740      C3499   1.419       .  A
C1740      C1741   1.402       .  A
C1741      C1742   1.387   1_655  A
C1741      H1744   1.086   1_655  S
C1742      C3497   1.399   1_454  A
C1742      C1745   1.441       .  S
C1745      N1747   1.156       .  T
C1746      N1748   1.157       .  T
C1749      C1750   1.400       .  A
C1749      C3514   1.398       .  A
C1750      C1751   1.383       .  A
C1750      H1755   1.081       .  S
C1751      C1752   1.400       .  A
C1751      C1758   1.446   1_556  S
C1752      C3513   1.408       .  A
C1753      C3512   1.409       .  A
C1753      C1754   1.391       .  A
C1753      H1756   1.084       .  S
C1754      C3509   1.397       .  A
C1754      C1757   1.444       .  S
C1757      N1759   1.157       .  T
C1758      N1760   1.157       .  T
O1761     Zr1773   2.377   1_554  S
O1761      C1763   1.260       .  A
O1762      C1763   1.302       .  A
C1763      C2581   1.498       .  S
O1764     Zr1776   2.428       .  S
O1764      C2646   1.286   1_545  A
O1765     Zr1800   2.387       .  S
O1765      C1766   1.280       .  A
C1766      O2644   1.286       .  A
O1767     Zr1776   2.437       .  S
O1768     Zr1799   2.360   1_556  S
O1768      C1769   1.275       .  A
C1769      C2629   1.432       .  S
O1770     Zr1773   2.397   1_565  S
O1770      C2652   1.279       .  A
O1771     Zr1800   2.580       .  S
O1771      C1772   1.314       .  A
C1772      O2650   1.280       .  A
C1772      C2608   1.543       .  S
Zr1773     O1774   2.437       .  S
Zr1773     O1775   2.437   1_556  S
Zr1773     O1779   2.379       .  S
Zr1773     O1780   2.373       .  S
Zr1773     O2683   2.346   1_546  S
Zr1773     O1805   2.391   1_556  S
O1774      H1817   0.990       .  S
O1775      H1816   0.990       .  S
O1775      H1820   0.990       .  S
Zr1776     O1777   2.434       .  S
Zr1776     O1780   2.374       .  S
Zr1776     O1779   2.361       .  S
O1777      H1818   0.990       .  S
O1777      H1821   0.990       .  S
O1778      H1811   0.990       .  S
O1780     Zr2680   2.381   1_545  S
O1780      H1807   0.966       .  S
O1781     Zr1793   2.466       .  S
O1782     Zr1800   2.327       .  S
O1782      C1783   1.270   1_556  A
C1783      C2620   1.438       .  S
O1784     Zr1796   2.413   1_554  S
O1784      C2666   1.280       .  A
O1785     Zr1799   2.591   1_655  S
O1785      C1786   1.319       .  A
C1786      O2664   1.280       .  A
C1786      C2596   1.544       .  S
O1787     Zr1796   2.393       .  S
O1787      C1789   1.264       .  A
O1788      C1789   1.288       .  A
C1789      C2572   1.509       .  S
O1790     Zr1793   2.427       .  S
O1790      C2672   1.286       .  A
O1791     Zr1799   2.386   1_655  S
O1791      C1792   1.282       .  A
C1792      O2670   1.286   1_545  A
C1792      C2557   1.442       .  S
Zr1793     O1794   2.433       .  S
Zr1793     O1801   2.310       .  S
Zr1793     O1802   2.391       .  S
O1794      H1814   0.990       .  S
O1794      H1819   0.990       .  S
O1795      H1815   0.990       .  S
Zr1796     O1797   2.431   1_556  S
Zr1796     O1798   2.440       .  S
Zr1796     O1802   2.364   1_556  S
Zr1796     O1801   2.369   1_556  S
Zr1796     O1806   2.394       .  S
Zr1796     O2684   2.345       .  S
O1797      H1813   0.990       .  S
O1798      H1812   0.989       .  S
O1798      H1822   0.990       .  S
Zr1799     O2682   2.379   1_445  S
Zr1799     O1804   2.384   1_454  S
Zr1800     O2660   2.380       .  S
Zr1800     O1803   2.385   1_556  S
O1801      H1809   0.953       .  S
O1802     Zr2679   2.379   1_655  S
O1803     Zr2653   2.345   1_554  S
O1804     Zr2676   2.345   1_545  S
O1804      H1808   0.964       .  S
O1805      H1810   0.965       .  S
O1823     Zr1835   2.395       .  S
O1824     Zr2741   2.512       .  S
O1824      C1825   1.297       .  A
O1826     Zr1838   2.426       .  S
O1826      C1828   1.285       .  A
O1827     Zr1862   2.372       .  S
O1827      C1828   1.278       .  A
C1828      C2500   1.439       .  S
O1829     Zr1838   2.433       .  S
O1830     Zr1861   2.383   1_545  S
O1830      C1831   1.282   1_545  A
C1831      C2560   1.456   1_565  S
O1832     Zr1835   2.385       .  S
O1832      C1834   1.279       .  A
O1833     Zr2742   2.468       .  S
O1833      C1834   1.294       .  A
C1834      C2473   1.487       .  S
Zr1835     O1836   2.436       .  S
Zr1835     O1837   2.435       .  S
Zr1835     O1841   2.368       .  S
Zr1835     O1842   2.349       .  S
Zr1835     O1865   2.358       .  S
O1836      H1879   0.990       .  S
O1837      H1878   0.989       .  S
O1837      H1882   0.989       .  S
Zr1838     O2719   2.435       .  S
Zr1838     O1840   2.435   1_565  S
Zr1838     O2722   2.364       .  S
Zr1838     O2721   2.361       .  S
Zr1838     O1868   2.371   1_565  S
O1839     Zr2718   2.435       .  S
O1839      H1880   0.990       .  S
O1839      H1883   0.990       .  S
O1840      H1873   0.990       .  S
O1841     Zr2718   2.361       .  S
O1842     Zr2718   2.364       .  S
O1842     Zr2742   2.390       .  S
O1842      H1869   0.966       .  S
O1843      C1845   1.293   1_455  A
O1844     Zr2742   2.370       .  S
O1844      C1845   1.278       .  A
C1845      C2545   1.478       .  S
O1846     Zr1858   2.358       .  S
O1846      C1848   1.261       .  A
O1847     Zr1861   2.552   1_545  S
O1847      C1848   1.308       .  A
C1848      C2485   1.511       .  S
O1849      C1851   1.267   1_455  A
O1850     Zr1862   2.516   1_545  S
O1850      C1851   1.299       .  A
C1851      C2536   1.493       .  S
O1852     Zr1855   2.491       .  S
O1852      C1854   1.299   1_565  A
O1853     Zr1861   2.337   1_545  S
O1853      C1854   1.273       .  A
C1854      C2509   1.458       .  S
Zr1855     O1856   2.434   1_565  S
Zr1855     O2737   2.434       .  S
Zr1855     O1864   2.367   1_565  S
Zr1855     O2747   2.342       .  S
O1856      H1876   0.990       .  S
O1856      H1881   0.990       .  S
O1857     Zr2735   2.434       .  S
Zr1858     O1859   2.435       .  S
Zr1858     O1860   2.434       .  S
Zr1858     O1864   2.372       .  S
Zr1858     O1866   2.367       .  S
O1859      H1875   0.990       .  S
O1860      H1884   0.989       .  S
Zr1861     O2704   2.512       .  S
Zr1861     O1864   2.382   1_565  S
Zr1861     O1866   2.374   1_565  S
Zr1861     O2747   2.403       .  S
Zr1862     O2713   2.468       .  S
Zr1862     O2724   2.370       .  S
Zr1862     O2722   2.391       .  S
Zr1862     O1863   2.384   1_665  S
Zr1862     O2745   2.380       .  S
Zr1862     O1868   2.364   1_565  S
O1863      H1871   0.965       .  S
O1865     Zr2742   2.380       .  S
O1866      H1870   0.964       .  S
O1867     Zr2735   2.342       .  S
O1867     Zr2741   2.403       .  S
O1867      H1872   0.964       .  S
O1885     Zr1897   2.385       .  S
O1885      C1887   1.275       .  A
O1886      C1887   1.297       .  A
C1887      C2461   1.475       .  S
O1888     Zr1900   2.467       .  S
O1888      C1890   1.292       .  A
O1889     Zr1924   2.414       .  S
O1889      C1890   1.287       .  A
C1890      C2416   1.487       .  S
O1891      C1893   1.291   1_554  A
O1892     Zr1923   2.327       .  S
O1892      C1893   1.272       .  A
C1893      C2632   1.437       .  S
O1894     Zr1897   2.380   1_554  S
O1894      C1896   1.279       .  A
O1895     Zr1924   2.457       .  S
O1895      C1896   1.290       .  A
C1896      C2437   1.474       .  S
Zr1897     O1898   2.433   1_556  S
Zr1897     O1899   2.435       .  S
Zr1897     O1903   2.348   1_556  S
Zr1897     O1904   2.373   1_556  S
Zr1897     O1927   2.340       .  S
Zr1897     O1929   2.362       .  S
O1898      H1941   0.991       .  S
O1899      H1940   0.990       .  S
O1899      H1944   0.990       .  S
Zr1900     O1901   2.436       .  S
Zr1900     O1904   2.362       .  S
Zr1900     O1903   2.370       .  S
O1901      H1942   0.990       .  S
O1901      H1945   0.990       .  S
O1902      H1935   0.988       .  S
O1904     Zr1924   2.384       .  S
O1904      H1931   0.964       .  S
O1905     Zr1917   2.440   1_655  S
O1905      C1907   1.286       .  A
O1906     Zr1924   2.325       .  S
C1907      C2617   1.422       .  S
O1908     Zr1920   2.410       .  S
O1908      C1910   1.270       .  A
O1909     Zr1923   2.458   1_655  S
O1909      C1910   1.282       .  A
C1910      C2425   1.481       .  S
O1911     Zr1920   2.400   1_554  S
O1911      C1913   1.277       .  A
O1912      C1913   1.304       .  A
C1913      C2449   1.503       .  S
O1914     Zr1917   2.432   1_655  S
O1914      C1916   1.285   1_655  A
O1915     Zr1923   2.412       .  S
O1915      C1916   1.287       .  A
C1916      C2401   1.478   1_455  S
Zr1917     O1918   2.445   1_455  S
Zr1917     O1925   2.361   1_455  S
Zr1917     O1926   2.354   1_455  S
O1918      H1938   0.990       .  S
O1918      H1943   0.990       .  S
O1919      H1939   0.990       .  S
Zr1920     O1921   2.437       .  S
Zr1920     O1922   2.440   1_556  S
Zr1920     O1926   2.368       .  S
Zr1920     O1925   2.374       .  S
Zr1920     O1930   2.373   1_556  S
Zr1920     O1928   2.364       .  S
O1921      H1937   0.990       .  S
O1922      H1936   0.990       .  S
O1922      H1946   0.989   1_554  S
Zr1923     O1926   2.371   1_455  S
Zr1923     O1928   2.414   1_455  S
Zr1924     O1927   2.397   1_554  S
O1925      H1933   0.961       .  S
O1928      H1932   0.966       .  S
O1929      H1934   0.966       .  S
O1947     Zr1959   2.462       .  S
O1947      C1949   1.291       .  A
O1948     Zr1985   2.353       .  S
O1948      C1949   1.279       .  A
C1949      C2392   1.466       .  S
O1950     Zr1962   2.380       .  S
O1950      C1952   1.259       .  A
O1951     Zr1986   2.494       .  S
O1951      C1952   1.290       .  A
C1952      C2356   1.491       .  S
O1953     Zr1962   2.376       .  S
O1954     Zr1985   2.517       .  S
O1954      C1955   1.297       .  A
O1956      C1958   1.284       .  A
O1957     Zr1986   2.431       .  S
O1957      C1958   1.290       .  A
C1958      C2404   1.461       .  S
Zr1959     O1960   2.434       .  S
Zr1959     O1961   2.436       .  S
Zr1959     O1965   2.366       .  S
Zr1959     O1991   2.334       .  S
O1960      H2003   0.990       .  S
O1961      H2002   0.990       .  S
O1961      H2006   0.990       .  S
Zr1962     O1963   2.435       .  S
Zr1962     O1964   2.430       .  S
Zr1962     O1966   2.383       .  S
Zr1962     O1990   2.376       .  S
Zr1962     O1992   2.371       .  S
O1963      H2004   0.989       .  S
O1963      H2007   0.990       .  S
O1964      H1997   0.990       .  S
O1965     Zr1985   2.387       .  S
O1966     Zr1986   2.407       .  S
O1966      H1993   0.966       .  S
O1967      C1969   1.273   1_455  A
O1968     Zr1986   2.519       .  S
O1968      C1969   1.301       .  A
C1969      C2524   1.500       .  S
O1970     Zr1982   2.442       .  S
O1971     Zr1985   2.443       .  S
O1971      C1972   1.292       .  A
C1972      C2413   1.475       .  S
O1973     Zr1982   2.487       .  S
O1973      C1975   1.298       .  A
O1974     Zr1986   2.336       .  S
O1974      C1975   1.275       .  A
C1975      C2377   1.459       .  S
O1976     Zr1979   2.396       .  S
O1976      C1978   1.265       .  A
O1977     Zr1985   2.497       .  S
O1977      C1978   1.289       .  A
C1978      C2365   1.508       .  S
Zr1979     O1980   2.438       .  S
Zr1979     O1981   2.430       .  S
Zr1979     O1988   2.383       .  S
Zr1979     O1991   2.366       .  S
O1980      H2005   0.990       .  S
O1981      H2001   0.990       .  S
Zr1982     O1983   2.435       .  S
Zr1982     O1984   2.433       .  S
Zr1982     O1987   2.354       .  S
Zr1982     O1992   2.349       .  S
Zr1982     O1990   2.372       .  S
O1983      H1999   0.990       .  S
O1984      H1998   0.989       .  S
O1984      H2008   0.990       .  S
Zr1985     O1988   2.408       .  S
Zr1985     O1991   2.408       .  S
Zr1986     O1987   2.392       .  S
Zr1986     O1989   2.378   1_655  S
Zr1986     O1992   2.391       .  S
O1987      H1995   0.965       .  S
O1990      H1994   0.965       .  S
O1991      H1996   0.960       .  S
O2009     Zr2021   2.388       .  S
O2009      C2011   1.276       .  A
O2010     Zr2047   2.485   1_554  S
O2010      C2011   1.299       .  A
C2011      C2440   1.473       .  S
O2012     Zr2024   2.389   1_554  S
O2012      C2014   1.279       .  A
O2013     Zr2048   2.539       .  S
O2013      C2014   1.310       .  A
C2014      C2344   1.505       .  S
O2015     Zr2024   2.455       .  S
O2015      C2897   1.291   1_545  A
O2016     Zr2047   2.543       .  S
O2016      C2017   1.308       .  A
C2017      O2895   1.291       .  A
C2017      C2605   1.548       .  S
O2018     Zr2021   2.433       .  S
O2018      C2900   1.285       .  A
O2019     Zr2048   2.456       .  S
O2019      C2020   1.292       .  A
C2020      O2898   1.284   1_545  A
C2020      C2317   1.480       .  S
Zr2021     O2022   2.435       .  S
Zr2021     O2023   2.433       .  S
Zr2021     O2027   2.381       .  S
Zr2021     O2908   2.350       .  S
Zr2021     O2051   2.361       .  S
Zr2021     O2053   2.372       .  S
O2022      H2065   0.991       .  S
O2023      H2064   0.990       .  S
O2023      H2068   0.990       .  S
Zr2024     O2025   2.431   1_556  S
Zr2024     O2026   2.433       .  S
Zr2024     O2028   2.384   1_556  S
Zr2024     O2907   2.346   1_546  S
Zr2024     O2052   2.350       .  S
Zr2024     O2054   2.388       .  S
O2025      H2066   0.989       .  S
O2025      H2069   0.990       .  S
O2026      H2059   0.990       .  S
O2027     Zr2904   2.339   1_554  S
O2027     Zr2047   2.374   1_554  S
O2028     Zr2901   2.347   1_545  S
O2028     Zr2048   2.401       .  S
O2028      H2055   0.964       .  S
O2029     Zr2921   2.483   1_544  S
O2029      C2031   1.294       .  A
O2030     Zr2048   2.549       .  S
O2030      C2031   1.311       .  A
C2031      C2593   1.545       .  S
O2032     Zr2044   2.426       .  S
O2032      C2914   1.287   1_545  A
O2033     Zr2047   2.469       .  S
O2033      C2034   1.296       .  A
C2034      O2912   1.287       .  A
C2034      C2305   1.501       .  S
O2035     Zr2044   2.435       .  S
O2035      C2037   1.286       .  A
O2036     Zr2048   2.441   1_556  S
O2036      C2037   1.292       .  A
C2037      C2428   1.471       .  S
O2038     Zr2041   2.441       .  S
O2038      C2040   1.280       .  A
O2039     Zr2047   2.464       .  S
O2039      C2040   1.294       .  A
C2040      C2332   1.489       .  S
Zr2041     O2909   2.481   1_556  S
Zr2041     O2042   2.440       .  S
Zr2041     O2043   2.434   1_556  S
Zr2041     O2929   2.362       .  S
Zr2041     O2050   2.378       .  S
Zr2041     O2053   2.393   1_556  S
Zr2041     O2051   2.383   1_556  S
O2042      H2942   0.990       .  S
O2042      H2067   0.990       .  S
O2043      H2063   0.990       .  S
Zr2044     O2045   2.434       .  S
Zr2044     O2046   2.434       .  S
Zr2044     O2930   2.357   1_545  S
Zr2044     O2049   2.374       .  S
Zr2044     O2054   2.365       .  S
Zr2044     O2052   2.375       .  S
O2045      H2061   0.990       .  S
O2046      H2060   0.990       .  S
O2046      H2070   0.990       .  S
Zr2047     O2050   2.411       .  S
Zr2047     O2932   2.397       .  S
Zr2047     O2053   2.442   1_556  S
Zr2048     O2049   2.406   1_554  S
Zr2048     O2931   2.404   1_545  S
Zr2048     O2054   2.416   1_554  S
O2049     Zr2921   2.362   1_545  S
O2049      H2057   0.964       .  S
O2050     Zr2924   2.357       .  S
O2051     Zr2928   2.405       .  S
O2052     Zr2927   2.397   1_545  S
O2052      H2056   0.966       .  S
O2053      H2058   0.966       .  S
H2062      O2922   0.990       .  S
O2071     Zr2083   2.380       .  S
O2071      C2073   1.270       .  A
O2072     Zr2989   2.526   1_545  S
O2072      C2073   1.303       .  A
C2073      C2293   1.495       .  S
O2074     Zr2966   2.491       .  S
O2074      C2076   1.299       .  A
O2075     Zr2990   2.414       .  S
O2075      C2076   1.288       .  A
C2076      C2320   1.492       .  S
O2077     Zr2086   2.464       .  S
O2077      C2079   1.293       .  A
O2078     Zr2109   2.365       .  S
O2078      C2079   1.278       .  A
C2079      C2512   1.450       .  S
O2080     Zr2083   2.382       .  S
O2080      C2082   1.258       .  A
O2081     Zr2990   2.492       .  S
O2081      C2082   1.289       .  A
C2082      C2353   1.484       .  S
Zr2083     O2084   2.438       .  S
Zr2083     O2085   2.439       .  S
Zr2083     O2089   2.337       .  S
Zr2083     O2090   2.378       .  S
Zr2083     O2113   2.376       .  S
Zr2083     O2115   2.385       .  S
O2084      H2127   0.990       .  S
O2085      H2126   0.990       .  S
O2085      H2130   0.990       .  S
Zr2086     O2954   2.491       .  S
Zr2086     O2967   2.433       .  S
Zr2086     O2088   2.436       .  S
Zr2086     O2970   2.352       .  S
Zr2086     O2969   2.383       .  S
Zr2086     O2114   2.364       .  S
Zr2086     O2116   2.376       .  S
O2087     Zr2966   2.433       .  S
O2087      H2128   0.990       .  S
O2087      H2131   0.990       .  S
O2088      H2121   0.990       .  S
O2089     Zr2966   2.383       .  S
O2089     Zr2989   2.390   1_545  S
O2090     Zr2966   2.352       .  S
O2090     Zr2990   2.395       .  S
O2090      H2117   0.966       .  S
O2091     Zr2103   2.449       .  S
O2091      C2093   1.289       .  A
O2092     Zr2110   2.352       .  S
O2092      C2093   1.276       .  A
C2093      C2497   1.442       .  S
O2094     Zr2106   2.391       .  S
O2094      C2096   1.265       .  A
O2095     Zr2109   2.489       .  S
O2095      C2096   1.287       .  A
C2096      C2368   1.503       .  S
O2097     Zr2106   2.402       .  S
O2097      C2099   1.279       .  A
O2098     Zr2110   2.494       .  S
O2098      C2099   1.299       .  A
C2099      C2281   1.497       .  S
O2100     Zr2103   2.470       .  S
O2100      C2102   1.294       .  A
O2101     Zr2109   2.437       .  S
O2101      C2102   1.290       .  A
C2102      C2308   1.486       .  S
Zr2103     O2104   2.435       .  S
Zr2103     O2985   2.434       .  S
Zr2103     O2111   2.374       .  S
Zr2103     O2112   2.362       .  S
Zr2103     O2995   2.356       .  S
Zr2103     O2993   2.373       .  S
O2104      H2124   0.990       .  S
O2104      H2129   0.990       .  S
O2105     Zr2983   2.434   1_545  S
O2105      H2125   0.990       .  S
Zr2106     O2107   2.432       .  S
Zr2106     O2108   2.430       .  S
Zr2106     O2112   2.390       .  S
Zr2106     O2111   2.356       .  S
Zr2106     O2116   2.359       .  S
Zr2106     O2114   2.377       .  S
O2107      H2123   0.990       .  S
O2108      H2122   0.990       .  S
O2108      H2132   0.989       .  S
Zr2109     O2952   2.526       .  S
Zr2109     O2969   2.390       .  S
Zr2109     O2112   2.406       .  S
Zr2109     O2114   2.431       .  S
Zr2109     O2995   2.375       .  S
Zr2110     O2955   2.414       .  S
Zr2110     O2961   2.492       .  S
Zr2110     O2970   2.395       .  S
Zr2110     O2111   2.388       .  S
Zr2110     O2993   2.389       .  S
Zr2110     O2116   2.380       .  S
O2111      H2119   0.965       .  S
O2113     Zr2983   2.373   1_545  S
O2113     Zr2990   2.389       .  S
O2114      H2118   0.962       .  S
O2115     Zr2983   2.356   1_545  S
O2115     Zr2989   2.375   1_545  S
O2115      H2120   0.964       .  S
O2133     Zr2145   2.528       .  S
O2133      C2135   1.304       .  A
O2134     Zr2171   2.427   1_554  S
O2134      C2135   1.290       .  A
C2135      C2341   1.501       .  S
O2136     Zr2148   2.367       .  S
O2136      C2138   1.270   1_556  A
O2137     Zr2172   2.493       .  S
O2137      C2138   1.297       .  A
C2138      C2464   1.477   1_554  S
O2139     Zr2148   2.388       .  S
O2139      C2141   1.253       .  A
O2140     Zr2171   2.529       .  S
O2140      C2141   1.292       .  A
C2141      C2584   1.508       .  S
O2142     Zr2145   2.460       .  S
O2142      C2144   1.292       .  A
O2143     Zr2172   2.441       .  S
O2143      C2144   1.291       .  A
C2144      C2269   1.485       .  S
Zr2145     O2146   2.434       .  S
Zr2145     O2147   2.436       .  S
Zr2145     O2151   2.365       .  S
Zr2145     O2152   2.405       .  S
Zr2145     O2175   2.383       .  S
Zr2145     O2177   2.352       .  S
O2146      H2189   0.990       .  S
O2147      H2188   0.990       .  S
O2147      H2192   0.990       .  S
Zr2148     O2149   2.435   1_556  S
Zr2148     O2150   2.437       .  S
Zr2148     O2152   2.381   1_556  S
Zr2148     O2151   2.383   1_556  S
Zr2148     O2176   2.376       .  S
Zr2148     O2178   2.342       .  S
O2149      H2190   0.988       .  S
O2149      H2193   0.990       .  S
O2150      H2183   0.990       .  S
O2151     Zr2171   2.402   1_554  S
O2152     Zr2172   2.394       .  S
O2152      H2179   0.966       .  S
O2153     Zr2165   2.411       .  S
O2153      C2155   1.268       .  A
O2154     Zr2172   2.464       .  S
O2154      C2155   1.276       .  A
C2155      C2569   1.495       .  S
O2156     Zr2168   2.476       .  S
O2156      C2158   1.297       .  A
O2157     Zr2171   2.463       .  S
O2157      C2158   1.298       .  A
C2158      C2260   1.491       .  S
O2159     Zr2168   2.555       .  S
O2159      C2161   1.311       .  A
O2160     Zr2172   2.366   1_556  S
O2160      C2161   1.277       .  A
C2161      C2329   1.511       .  S
O2162     Zr2165   2.387       .  S
O2162      C2164   1.276   1_554  A
O2163     Zr2171   2.533       .  S
O2163      C2164   1.309       .  A
C2164      C2452   1.502   1_556  S
Zr2165     O2166   2.432   1_554  S
Zr2165     O2167   2.419       .  S
Zr2165     O2173   2.372   1_554  S
Zr2165     O2174   2.361   1_554  S
Zr2165     O2177   2.356       .  S
Zr2165     O2175   2.377       .  S
O2166      H2186   0.985       .  S
O2166      H2191   0.988       .  S
O2167      H2187   0.990       .  S
Zr2168     O2169   2.434       .  S
Zr2168     O2170   2.435       .  S
Zr2168     O2174   2.411       .  S
Zr2168     O2173   2.340       .  S
Zr2168     O2178   2.352       .  S
Zr2168     O2176   2.366       .  S
O2169      H2185   0.990       .  S
O2170      H2184   0.990       .  S
O2170      H2194   0.990       .  S
Zr2171     O2174   2.410       .  S
Zr2171     O2176   2.433       .  S
Zr2171     O2177   2.380   1_556  S
Zr2172     O2173   2.422   1_554  S
Zr2172     O2175   2.406       .  S
Zr2172     O2178   2.365   1_554  S
O2173      H2181   0.962       .  S
O2176      H2180   0.965       .  S
O2177      H2182   0.962       .  S
O2195     Zr2207   2.381       .  S
O2195      C2197   1.276       .  A
O2196     Zr2233   2.506       .  S
O2196      C2197   1.304       .  A
C2197      C2488   1.489       .  S
O2198     Zr2210   2.468       .  S
O2198      C2200   1.294       .  A
O2199     Zr2234   2.441       .  S
O2199      C2200   1.291       .  A
C2200      C2257   1.491       .  S
O2201     Zr2210   2.420       .  S
O2201      C2203   1.285       .  A
O2202     Zr2233   2.409       .  S
O2202      C2203   1.286       .  A
C2203      C2389   1.474       .  S
O2204     Zr2207   2.399       .  S
O2204      C2206   1.278       .  A
O2205     Zr2234   2.484       .  S
O2205      C2206   1.298       .  A
C2206      C2296   1.480       .  S
Zr2207     O2208   2.436       .  S
Zr2207     O2209   2.435       .  S
Zr2207     O2213   2.363       .  S
Zr2207     O2214   2.360       .  S
Zr2207     O2237   2.355       .  S
Zr2207     O2239   2.377       .  S
O2208      H2251   0.990       .  S
O2209      H2250   0.990       .  S
O2209      H2254   0.990       .  S
Zr2210     O2211   2.434       .  S
Zr2210     O2212   2.433       .  S
Zr2210     O2214   2.364       .  S
Zr2210     O2213   2.379       .  S
Zr2210     O2238   2.387       .  S
Zr2210     O2240   2.343       .  S
O2211      H2252   0.990       .  S
O2211      H2255   0.990       .  S
O2212      H2245   0.990       .  S
O2213     Zr2233   2.403       .  S
O2214     Zr2234   2.386       .  S
O2214      H2241   0.966       .  S
O2215     Zr2227   2.378       .  S
O2215      C2217   1.275       .  A
O2216     Zr2234   2.437       .  S
O2216      C2217   1.293       .  A
C2217      C2380   1.465       .  S
O2218     Zr2230   2.405       .  S
O2218      C2220   1.280       .  A
O2219     Zr2233   2.506       .  S
O2219      C2220   1.304       .  A
C2220      C2284   1.510       .  S
O2221     Zr2230   2.423       .  S
O2221      C2223   1.280       .  A
O2222     Zr2234   2.458       .  S
O2222      C2223   1.292       .  A
C2223      C2476   1.495       .  S
O2224     Zr2227   2.451       .  S
O2224      C2226   1.289       .  A
O2225     Zr2233   2.443       .  S
O2225      C2226   1.290       .  A
C2226      C2272   1.490       .  S
Zr2227     O2228   2.434       .  S
Zr2227     O2229   2.434       .  S
Zr2227     O2235   2.378       .  S
Zr2227     O2236   2.343       .  S
Zr2227     O2239   2.346       .  S
Zr2227     O2237   2.383       .  S
O2228      H2248   0.990       .  S
O2228      H2253   0.990       .  S
O2229      H2249   0.990       .  S
Zr2230     O2231   2.435       .  S
Zr2230     O2232   2.435       .  S
Zr2230     O2236   2.375       .  S
Zr2230     O2235   2.365       .  S
Zr2230     O2240   2.349       .  S
Zr2230     O2238   2.362       .  S
O2231      H2247   0.990       .  S
O2232      H2246   0.990       .  S
O2232      H2256   0.988       .  S
Zr2233     O2236   2.383       .  S
Zr2233     O2238   2.405       .  S
Zr2233     O2239   2.376       .  S
Zr2234     O2235   2.410       .  S
Zr2234     O2237   2.379       .  S
Zr2234     O2240   2.377       .  S
O2235      H2243   0.966       .  S
O2238      H2242   0.966       .  S
O2239      H2244   0.965       .  S
C2257      C2258   1.406       .  A
C2257      C2262   1.412       .  A
C2258      C2259   1.408       .  A
C2258      H2263   1.085       .  S
C2259      C2260   1.413       .  A
C2259      C2266   1.443       .  S
C2260      C2261   1.406       .  A
C2261      C2262   1.409       .  A
C2261      H2264   1.085       .  S
C2262      C2265   1.443       .  S
C2265      N2267   1.157       .  T
C2266      N2268   1.157       .  T
C2269      C2270   1.403       .  A
C2269      C2274   1.411       .  A
C2270      C2271   1.406       .  A
C2270      H2275   1.085       .  S
C2271      C2272   1.415       .  A
C2271      C2278   1.444       .  S
C2272      C2273   1.407       .  A
C2273      C2274   1.407       .  A
C2273      H2276   1.085       .  S
C2274      C2277   1.443       .  S
C2277      N2279   1.157       .  T
C2278      N2280   1.157       .  T
C2281      C2282   1.399       .  A
C2281      C2286   1.421       .  A
C2282      C2283   1.409       .  A
C2282      H2287   1.085       .  S
C2283      C2284   1.429       .  A
C2283      C2290   1.444       .  S
C2284      C2285   1.400       .  A
C2285      C2286   1.407       .  A
C2285      H2288   1.079       .  S
C2286      C2289   1.444       .  S
C2289      N2291   1.157       .  T
C2290      N2292   1.157       .  T
C2293      C2294   1.408       .  A
C2293      C2298   1.411       .  A
C2294      C2295   1.386       .  A
C2294      H2299   1.082       .  S
C2295      C2296   1.406       .  A
C2295      C2302   1.447       .  S
C2296      C2297   1.416       .  A
C2297      C2298   1.422       .  A
C2297      H2300   1.084       .  S
C2298      C2301   1.441       .  S
C2301      N2303   1.157       .  T
C2302      N2304   1.157       .  T
C2305      C3186   1.410       .  A
C2305      C2310   1.418       .  A
C2306      C3185   1.410   1_545  A
C2306      C2307   1.397       .  A
C2306      H2311   1.085       .  S
C2307      C3188   1.407   1_545  A
C2307      C2314   1.445       .  S
C2308      C3187   1.407       .  A
C2308      C2309   1.408       .  A
C2309      C2310   1.416       .  A
C2309      H2312   1.084       .  S
C2310      C2313   1.443       .  S
C2313      N2315   1.157       .  T
C2314      N2316   1.157       .  T
C2317      C2318   1.405       .  A
C2317      C2322   1.408       .  A
C2318      C2319   1.408       .  A
C2318      H2323   1.085       .  S
C2319      C2320   1.414       .  A
C2319      C2326   1.442       .  S
C2320      C3201   1.408       .  A
C2321      C3200   1.408       .  A
C2321      C3202   1.403       .  A
C2321      H2324   1.085       .  S
C2322      C3201   1.403       .  A
C2322      C3205   1.444   1_545  S
C2325      C3202   1.444       .  S
C2325      N2327   1.157       .  T
C2326      N2328   1.157       .  T
C2329      C2330   1.409       .  A
C2329      C2334   1.433       .  A
C2330      C2331   1.418       .  A
C2330      H2335   1.084       .  S
C2331      C2332   1.418       .  A
C2331      C2338   1.443       .  S
C2332      C2333   1.390       .  A
C2333      C2334   1.395       .  A
C2333      H2336   1.087       .  S
C2334      C2337   1.444   1_556  S
C2337      N2339   1.157       .  T
C2338      N2340   1.157       .  T
C2341      C2342   1.395       .  A
C2341      C2346   1.415       .  A
C2342      C2343   1.407       .  A
C2342      H2347   1.084       .  S
C2343      C2344   1.427       .  A
C2343      C2350   1.442       .  S
C2344      C2345   1.399       .  A
C2345      C2346   1.413       .  A
C2345      H2348   1.084       .  S
C2346      C2349   1.429       .  S
C2349      N2351   1.154       .  T
C2350      N2352   1.157       .  T
C2353      C2354   1.405       .  A
C2353      C2358   1.418       .  A
C2354      C2355   1.406       .  A
C2354      H2359   1.085       .  S
C2355      C2356   1.419       .  A
C2355      C2362   1.444       .  S
C2356      C2357   1.404       .  A
C2357      C2358   1.403       .  A
C2357      H2360   1.081       .  S
C2358      C2361   1.445       .  S
C2361      N2363   1.157       .  T
C2362      N2364   1.157       .  T
C2365      C2366   1.407       .  A
C2365      C2370   1.422       .  A
C2366      C2367   1.410       .  A
C2366      H2371   1.084       .  S
C2367      C2368   1.420       .  A
C2367      C2374   1.444       .  S
C2368      C2369   1.406       .  A
C2369      C2370   1.411       .  A
C2369      H2372   1.084       .  S
C2370      C2373   1.443       .  S
C2373      N2375   1.157       .  T
C2374      N2376   1.157       .  T
C2377      C2378   1.395       .  A
C2377      C2382   1.416       .  A
C2378      C2379   1.395       .  A
C2378      H2383   1.085       .  S
C2379      C2380   1.421       .  A
C2379      C2386   1.444       .  S
C2380      C2381   1.394       .  A
C2381      C2382   1.385       .  A
C2381      H2384   1.086       .  S
C2382      C2385   1.444       .  S
C2385      N2387   1.157       .  T
C2386      N2388   1.157       .  T
C2389      C2390   1.411       .  A
C2389      C2394   1.413       .  A
C2390      C2391   1.399       .  A
C2390      H2395   1.084       .  S
C2391      C2392   1.406       .  A
C2391      C2398   1.443       .  S
C2392      C2393   1.403       .  A
C2393      C2394   1.384       .  A
C2393      H2396   1.086       .  S
C2394      C2397   1.444       .  S
C2397      N2399   1.157       .  T
C2398      N2400   1.157       .  T
C2401      C2402   1.404       .  A
C2401      C2406   1.418       .  A
C2402      C2403   1.394       .  A
C2402      H2407   1.085       .  S
C2403      C2404   1.409       .  A
C2403      C2410   1.446       .  S
C2404      C2405   1.398       .  A
C2405      C2406   1.400       .  A
C2405      H2408   1.085       .  S
C2406      C2409   1.444       .  S
C2409      N2411   1.157   1_655  T
C2410      N2412   1.157       .  T
C2413      C2418   1.407       .  A
C2414      C2415   1.407       .  A
C2414      H2419   1.085       .  S
C2415      C2422   1.443       .  S
C2416      C2417   1.408       .  A
C2417      C2418   1.399       .  A
C2417      H2420   1.085       .  S
C2418      C2421   1.445       .  S
C2421      N2423   1.157       .  T
C2422      N2424   1.157       .  T
C2425      C2426   1.410       .  A
C2425      C2430   1.407       .  A
C2426      C2427   1.400       .  A
C2426      H2431   1.085       .  S
C2427      C2428   1.406       .  A
C2427      C2434   1.444       .  S
C2428      C2429   1.404       .  A
C2429      C2430   1.402       .  A
C2429      H2432   1.083       .  S
C2430      C2433   1.439       .  S
C2433      N2435   1.156       .  T
C2434      N2436   1.157       .  T
C2437      C2438   1.409       .  A
C2437      C2442   1.397       .  A
C2438      C2439   1.405       .  A
C2438      H2443   1.085       .  S
C2439      C2440   1.415       .  A
C2439      C2446   1.445       .  S
C2440      C2441   1.408       .  A
C2441      C2442   1.409       .  A
C2441      H2444   1.084       .  S
C2442      C2445   1.439       .  S
C2445      N2447   1.157       .  T
C2446      N2448   1.157       .  T
C2449      C2450   1.394       .  A
C2449      C2454   1.432   1_554  A
C2450      C2451   1.408       .  A
C2450      H2455   1.085       .  S
C2451      C2452   1.433       .  A
C2451      C2458   1.444       .  S
C2452      C2453   1.394   1_554  A
C2453      C2454   1.405       .  A
C2453      H2456   1.085       .  S
C2454      C2457   1.445       .  S
C2457      N2459   1.157       .  T
C2458      N2460   1.157       .  T
C2461      C2462   1.406   1_556  A
C2461      C2466   1.409       .  A
C2462      C2463   1.402       .  A
C2462      H2467   1.085       .  S
C2463      C2464   1.409   1_554  A
C2463      C2470   1.444       .  S
C2464      C2465   1.408       .  A
C2465      C2466   1.407       .  A
C2465      H2468   1.084       .  S
C2466      C2469   1.443       .  S
C2469      N2471   1.157       .  T
C2470      N2472   1.157       .  T
C2473      C2474   1.413       .  A
C2473      C2478   1.403       .  A
C2474      C2475   1.401       .  A
C2474      H2479   1.085       .  S
C2475      C2476   1.410       .  A
C2475      C2482   1.444       .  S
C2476      C2477   1.417       .  A
C2477      C2478   1.403       .  A
C2477      H2480   1.084       .  S
C2478      C2481   1.443       .  S
C2481      N2483   1.157       .  T
C2482      N2484   1.157       .  T
C2485      C2486   1.401       .  A
C2485      C2490   1.441       .  A
C2486      C2487   1.410       .  A
C2486      H2491   1.084       .  S
C2487      C2488   1.423       .  A
C2487      C2494   1.443       .  S
C2488      C2489   1.386       .  A
C2489      C2490   1.398       .  A
C2489      H2492   1.086       .  S
C2490      C2493   1.444       .  S
C2493      N2495   1.157       .  T
C2494      N2496   1.157       .  T
C2497      C2498   1.400       .  A
C2497      C3382   1.410       .  A
C2498      C2499   1.391       .  A
C2498      H2503   1.085       .  S
C2499      C3380   1.402       .  A
C2499      C2506   1.442       .  S
C2500      C3379   1.402       .  A
C2500      C2501   1.392   1_565  A
C2501      C2502   1.384       .  A
C2501      H2504   1.083       .  S
C2502      C3377   1.410   1_545  A
C2502      C2505   1.444       .  S
C2505      N2507   1.157       .  T
C2506      N2508   1.156       .  T
C2509      C2510   1.395       .  A
C2509      C3394   1.420   1_545  A
C2510      C2511   1.391       .  A
C2510      H2515   1.085       .  S
C2511      C3392   1.409       .  A
C2511      C2518   1.438       .  S
C2512      C3391   1.409       .  A
C2512      C2513   1.390       .  A
C2513      C2514   1.390       .  A
C2513      H2516   1.086       .  S
C2514      C3389   1.420       .  A
C2514      C2517   1.442       .  S
C2517      N2519   1.157       .  T
C2518      N2520   1.155       .  T
C2521      C2522   1.406   1_655  A
C2521      C2526   1.420       .  A
C2522      C2523   1.409       .  A
C2523      C2524   1.420   1_455  A
C2523      C2530   1.444       .  S
C2524      C2525   1.407       .  A
C2525      C2526   1.414       .  A
C2525      H2528   1.085       .  S
C2526      C2529   1.443       .  S
C2529      N2531   1.157       .  T
C2533      C2534   1.405   1_655  A
C2533      C2538   1.421       .  A
C2534      C2535   1.411       .  A
C2534      H2539   1.085       .  S
C2535      C2536   1.420   1_455  A
C2535      C2542   1.443       .  S
C2536      C2537   1.401       .  A
C2537      C2538   1.406       .  A
C2537      H2540   1.081       .  S
C2538      C2541   1.445       .  S
C2541      N2543   1.157       .  T
C2542      N2544   1.157       .  T
C2545      C2550   1.423       .  A
C2546      C2547   1.394       .  A
C2546      H2551   1.084       .  S
C2547      C2554   1.445       .  S
C2548      C2549   1.395       .  A
C2549      C2550   1.389       .  A
C2549      H2552   1.086       .  S
C2550      C2553   1.447       .  S
C2553      N2555   1.158       .  T
C2554      N2556   1.157       .  T
C2557      C2562   1.404   1_545  A
C2558      C2559   1.390       .  A
C2558      H2563   1.086       .  S
C2559      C2560   1.414       .  A
C2559      C2566   1.446       .  S
C2561      C2562   1.389       .  A
C2561      H2564   1.085       .  S
C2562      C3445   1.445       .  S
C2565      C3442   1.445       .  S
C2565      N2567   1.157       .  T
C2566      N2568   1.157       .  T
C2569      C2570   1.392       .  A
C2569      C2574   1.412   1_554  A
C2570      C2571   1.397       .  A
C2570      H2575   1.086       .  S
C2571      C2572   1.423   1_554  A
C2571      C2578   1.434       .  S
C2572      C2573   1.418       .  A
C2573      C2574   1.415       .  A
C2573      H2576   1.084       .  S
C2574      C2577   1.441       .  S
C2577      N2579   1.157       .  T
C2578      N2580   1.155       .  T
C2581      C2582   1.424       .  A
C2581      C2586   1.396       .  A
C2582      C2583   1.415       .  A
C2582      H2587   1.084       .  S
C2583      C2584   1.407   1_554  A
C2583      C2590   1.441       .  S
C2584      C2585   1.417       .  A
C2585      C2586   1.395   1_556  A
C2585      H2588   1.074       .  S
C2586      C2589   1.442       .  S
C2589      N2591   1.156       .  T
C2590      N2592   1.157       .  T
C2593      C2594   1.410   1_554  A
C2593      C2598   1.425       .  A
C2594      C2595   1.421       .  A
C2594      H2599   1.084       .  S
C2595      C2596   1.425   1_556  A
C2595      C2602   1.444       .  S
C2596      C3477   1.419       .  A
C2597      C3476   1.419       .  A
C2597      C3478   1.440       .  A
C2597      H2600   1.084       .  S
C2598      C3477   1.439       .  A
C2598      C3481   1.441       .  S
C2601      C3478   1.441       .  S
C2601      N2603   1.157       .  T
C2602      N2604   1.157       .  T
C2605      C2606   1.424       .  A
C2605      C3490   1.423       .  A
C2606      C2607   1.444       .  A
C2606      H2611   1.083       .  S
C2607      C2608   1.419       .  A
C2607      C2614   1.438       .  S
C2608      C3489   1.411       .  A
C2609      C3488   1.411   1_545  A
C2609      C2610   1.407       .  A
C2609      H2612   1.085       .  S
C2610      C3485   1.423   1_545  A
C2610      C2613   1.444       .  S
C2613      N2615   1.157       .  T
C2614      N2616   1.157       .  T
C2617      C2618   1.388       .  A
C2618      C2619   1.381   1_556  A
C2618      H2623   1.087       .  S
C2619      C2626   1.443   1_554  S
C2620      C2621   1.402       .  A
C2621      C2622   1.387       .  A
C2621      H2624   1.086       .  S
C2622      C2625   1.441       .  S
C2625      N2627   1.156       .  T
C2626      N2628   1.157       .  T
C2629      C2630   1.400   1_455  A
C2630      C2631   1.383       .  A
C2630      H2635   1.081       .  S
C2631      C2632   1.400   1_655  A
C2631      C2638   1.446   1_556  S
C2633      C2634   1.391       .  A
C2633      H2636   1.084       .  S
C2634      C2637   1.444       .  S
C2637      N2639   1.157       .  T
C2638      N2640   1.157       .  T
O2641     Zr2653   2.376   1_554  S
O2641      C2643   1.260       .  A
O2642      C2643   1.302       .  A
C2643      C3461   1.498       .  S
O2644     Zr2656   2.428       .  S
O2645     Zr2680   2.387       .  S
O2645      C2646   1.280       .  A
O2647     Zr2656   2.439       .  S
O2648     Zr2679   2.360   1_556  S
O2648      C2649   1.275       .  A
C2649      C3509   1.433       .  S
O2650     Zr2653   2.400       .  S
O2651     Zr2680   2.580       .  S
O2651      C2652   1.314       .  A
C2652      C3488   1.542       .  S
Zr2653     O2654   2.437       .  S
Zr2653     O2655   2.437   1_556  S
Zr2653     O2659   2.379       .  S
Zr2653     O2660   2.372       .  S
Zr2653     O2685   2.392   1_556  S
O2654      H2697   0.990       .  S
O2655      H2696   0.990       .  S
O2655      H2700   0.990       .  S
Zr2656     O2657   2.434       .  S
Zr2656     O2660   2.375       .  S
Zr2656     O2659   2.360       .  S
O2657      H2698   0.990       .  S
O2657      H2701   0.990       .  S
O2658      H2691   0.990       .  S
O2660      H2687   0.966       .  S
O2661     Zr2673   2.466       .  S
O2662     Zr2680   2.326       .  S
O2662      C2663   1.270   1_556  A
C2663      C3500   1.439       .  S
O2664     Zr2676   2.412   1_544  S
O2665     Zr2679   2.592   1_655  S
O2665      C2666   1.319       .  A
C2666      C3476   1.544       .  S
O2667     Zr2676   2.393       .  S
O2667      C2669   1.264       .  A
O2668      C2669   1.288       .  A
C2669      C3452   1.509       .  S
O2670     Zr2673   2.427       .  S
O2671     Zr2679   2.386   1_655  S
O2671      C2672   1.282       .  A
C2672      C3437   1.442       .  S
Zr2673     O2674   2.433       .  S
Zr2673     O2681   2.309       .  S
Zr2673     O2682   2.391       .  S
O2674      H2694   0.990       .  S
O2674      H2699   0.990       .  S
O2675      H2695   0.990       .  S
Zr2676     O2677   2.431   1_556  S
Zr2676     O2678   2.439       .  S
Zr2676     O2682   2.364   1_556  S
Zr2676     O2681   2.368   1_556  S
Zr2676     O2686   2.393       .  S
O2677      H2693   0.990       .  S
O2678      H2692   0.989       .  S
O2678      H2702   0.990       .  S
Zr2679     O2684   2.385   1_454  S
Zr2680     O2683   2.386   1_556  S
O2681      H2689   0.948       .  S
O2684      H2688   0.964       .  S
O2685      H2690   0.965       .  S
O2703     Zr2715   2.395       .  S
O2704      C2705   1.297       .  A
O2706     Zr2718   2.426       .  S
O2706      C2708   1.285       .  A
O2707     Zr2742   2.372       .  S
O2707      C2708   1.278       .  A
C2708      C3380   1.439       .  S
O2709     Zr2718   2.433       .  S
O2710     Zr2741   2.383       .  S
O2710      C2711   1.282       .  A
C2711      C3440   1.457       .  S
O2712     Zr2715   2.385       .  S
O2712      C2714   1.279       .  A
O2713      C2714   1.294       .  A
C2714      C3353   1.487       .  S
Zr2715     O2716   2.436       .  S
Zr2715     O2717   2.435       .  S
Zr2715     O2721   2.368       .  S
Zr2715     O2722   2.349       .  S
Zr2715     O2745   2.358       .  S
O2716      H2759   0.990       .  S
O2717      H2758   0.989       .  S
O2717      H2762   0.989       .  S
Zr2718     O2720   2.435       .  S
Zr2718     O2748   2.371       .  S
O2719      H2760   0.990       .  S
O2719      H2763   0.990       .  S
O2720      H2753   0.990       .  S
O2722      H2749   0.966       .  S
O2723      C2725   1.293   1_455  A
O2724      C2725   1.278       .  A
C2725      C3425   1.478       .  S
O2726     Zr2738   2.358       .  S
O2726      C2728   1.261       .  A
O2727     Zr2741   2.552       .  S
O2727      C2728   1.308       .  A
C2728      C3365   1.511       .  S
O2729      C2731   1.267   1_455  A
O2730     Zr2742   2.516       .  S
O2730      C2731   1.299       .  A
C2731      C3416   1.493       .  S
O2732     Zr2735   2.491       .  S
O2732      C2734   1.299       .  A
O2733     Zr2741   2.337       .  S
O2733      C2734   1.273       .  A
C2734      C3389   1.458       .  S
Zr2735     O2736   2.434       .  S
Zr2735     O2744   2.367       .  S
O2736      H2756   0.990       .  S
O2736      H2761   0.990       .  S
Zr2738     O2739   2.435       .  S
Zr2738     O2740   2.434       .  S
Zr2738     O2744   2.372       .  S
Zr2738     O2746   2.367       .  S
O2739      H2755   0.990       .  S
O2740      H2764   0.989       .  S
Zr2741     O2744   2.382       .  S
Zr2741     O2746   2.374       .  S
Zr2742     O2743   2.384   1_655  S
Zr2742     O2748   2.364       .  S
O2743      H2751   0.965       .  S
O2746      H2750   0.964       .  S
O2747      H2752   0.964       .  S
O2765     Zr2777   2.384       .  S
O2765      C2767   1.275       .  A
O2766      C2767   1.297       .  A
C2767      C3341   1.475       .  S
O2768     Zr2780   2.467       .  S
O2768      C2770   1.292       .  A
O2769     Zr2804   2.414       .  S
O2769      C2770   1.287       .  A
C2770      C3296   1.487       .  S
O2771      C2773   1.291   1_554  A
O2772     Zr2803   2.326       .  S
O2772      C2773   1.272       .  A
C2773      C3512   1.437       .  S
O2774     Zr2777   2.379   1_554  S
O2774      C2776   1.278       .  A
O2775     Zr2804   2.458       .  S
O2775      C2776   1.290       .  A
C2776      C3317   1.474       .  S
Zr2777     O2778   2.433   1_556  S
Zr2777     O2779   2.435       .  S
Zr2777     O2783   2.348   1_556  S
Zr2777     O2784   2.373   1_556  S
Zr2777     O2807   2.340       .  S
Zr2777     O2809   2.362       .  S
O2778      H2821   0.991       .  S
O2779      H2820   0.990       .  S
O2779      H2824   0.990       .  S
Zr2780     O2781   2.436       .  S
Zr2780     O2784   2.362       .  S
Zr2780     O2783   2.370       .  S
O2781      H2822   0.990       .  S
O2781      H2825   0.990       .  S
O2782      H2815   0.988       .  S
O2784     Zr2804   2.384       .  S
O2784      H2811   0.964       .  S
O2785     Zr2797   2.440   1_655  S
O2785      C2787   1.286       .  A
O2786     Zr2804   2.326       .  S
C2787      C3497   1.422       .  S
O2788     Zr2800   2.410       .  S
O2788      C2790   1.269       .  A
O2789     Zr2803   2.460   1_655  S
O2789      C2790   1.282       .  A
C2790      C3305   1.482       .  S
O2791     Zr2800   2.401   1_554  S
O2791      C2793   1.277       .  A
O2792      C2793   1.304       .  A
C2793      C3329   1.503       .  S
O2794     Zr2797   2.432   1_655  S
O2794      C2796   1.285   1_655  A
O2795     Zr2803   2.412       .  S
O2795      C2796   1.287       .  A
C2796      C3281   1.478   1_455  S
Zr2797     O2798   2.445   1_455  S
Zr2797     O2805   2.361   1_455  S
Zr2797     O2806   2.354   1_455  S
O2798      H2818   0.990       .  S
O2798      H2823   0.990       .  S
O2799      H2819   0.990       .  S
Zr2800     O2801   2.437       .  S
Zr2800     O2802   2.440   1_556  S
Zr2800     O2806   2.368       .  S
Zr2800     O2805   2.374       .  S
Zr2800     O2810   2.373   1_556  S
Zr2800     O2808   2.365       .  S
O2801      H2817   0.990       .  S
O2802      H2816   0.990       .  S
O2802      H2826   0.989   1_554  S
Zr2803     O2806   2.372   1_455  S
Zr2803     O2808   2.414   1_455  S
Zr2804     O2807   2.397   1_554  S
O2805      H2813   0.961       .  S
O2808      H2812   0.966       .  S
O2809      H2814   0.966       .  S
O2827     Zr2839   2.462       .  S
O2827      C2829   1.291       .  A
O2828     Zr2865   2.353       .  S
O2828      C2829   1.279       .  A
C2829      C3272   1.466       .  S
O2830     Zr2842   2.380       .  S
O2830      C2832   1.259       .  A
O2831     Zr2866   2.494       .  S
O2831      C2832   1.290       .  A
C2832      C3236   1.490       .  S
O2833     Zr2842   2.376       .  S
O2834     Zr2865   2.517       .  S
O2834      C2835   1.297       .  A
O2836      C2838   1.284       .  A
O2837     Zr2866   2.431       .  S
O2837      C2838   1.290       .  A
C2838      C3284   1.461       .  S
Zr2839     O2840   2.434       .  S
Zr2839     O2841   2.436       .  S
Zr2839     O2845   2.366       .  S
Zr2839     O2871   2.334       .  S
O2840      H2883   0.990       .  S
O2841      H2882   0.990       .  S
O2841      H2886   0.990       .  S
Zr2842     O2843   2.435       .  S
Zr2842     O2844   2.430       .  S
Zr2842     O2846   2.382       .  S
Zr2842     O2870   2.376       .  S
Zr2842     O2872   2.371       .  S
O2843      H2884   0.989       .  S
O2843      H2887   0.990       .  S
O2844      H2877   0.990       .  S
O2845     Zr2865   2.387       .  S
O2846     Zr2866   2.407       .  S
O2846      H2873   0.966       .  S
O2847      C2849   1.273   1_455  A
O2848     Zr2866   2.519       .  S
O2848      C2849   1.301       .  A
C2849      C3404   1.500       .  S
O2850     Zr2862   2.442       .  S
O2851     Zr2865   2.443       .  S
O2851      C2852   1.292       .  A
C2852      C3293   1.475       .  S
O2853     Zr2862   2.487       .  S
O2853      C2855   1.298       .  A
O2854     Zr2866   2.336       .  S
O2854      C2855   1.275       .  A
C2855      C3257   1.459       .  S
O2856     Zr2859   2.396       .  S
O2856      C2858   1.265       .  A
O2857     Zr2865   2.497       .  S
O2857      C2858   1.289       .  A
C2858      C3245   1.508       .  S
Zr2859     O2860   2.438       .  S
Zr2859     O2861   2.430       .  S
Zr2859     O2868   2.383       .  S
Zr2859     O2871   2.366       .  S
O2860      H2885   0.990       .  S
O2861      H2881   0.990       .  S
Zr2862     O2863   2.435       .  S
Zr2862     O2864   2.433       .  S
Zr2862     O2867   2.353       .  S
Zr2862     O2872   2.349       .  S
Zr2862     O2870   2.372       .  S
O2863      H2879   0.990       .  S
O2864      H2878   0.989       .  S
O2864      H2888   0.990       .  S
Zr2865     O2868   2.408       .  S
Zr2865     O2871   2.408       .  S
Zr2866     O2867   2.391       .  S
Zr2866     O2869   2.378   1_655  S
Zr2866     O2872   2.391       .  S
O2867      H2875   0.965       .  S
O2870      H2874   0.965       .  S
O2871      H2876   0.960       .  S
O2889     Zr2901   2.385       .  S
O2889      C2891   1.276       .  A
O2890     Zr2927   2.485   1_554  S
O2890      C2891   1.299       .  A
C2891      C3320   1.473       .  S
O2892     Zr2904   2.384   1_554  S
O2892      C2894   1.278       .  A
O2893     Zr2928   2.545       .  S
O2893      C2894   1.312       .  A
C2894      C3224   1.507       .  S
O2895     Zr2904   2.454       .  S
O2896     Zr2927   2.539       .  S
O2896      C2897   1.307       .  A
C2897      C3485   1.548       .  S
O2898     Zr2901   2.430       .  S
O2899     Zr2928   2.454       .  S
O2899      C2900   1.292       .  A
C2900      C3197   1.480       .  S
Zr2901     O2902   2.434       .  S
Zr2901     O2903   2.433       .  S
Zr2901     O2907   2.381       .  S
Zr2901     O2931   2.363       .  S
Zr2901     O2933   2.371       .  S
O2902      H2945   0.991       .  S
O2903      H2944   0.990       .  S
O2903      H2948   0.990       .  S
Zr2904     O2905   2.429   1_556  S
Zr2904     O2906   2.432       .  S
Zr2904     O2908   2.381   1_556  S
Zr2904     O2932   2.352       .  S
Zr2904     O2934   2.391       .  S
O2905      H2946   0.989       .  S
O2905      H2949   0.989       .  S
O2906      H2939   0.990       .  S
O2907     Zr2927   2.377   1_554  S
O2908     Zr2928   2.399       .  S
O2908      H2935   0.964       .  S
O2909      C2911   1.294       .  A
O2910     Zr2928   2.551       .  S
O2910      C2911   1.312       .  A
C2911      C3473   1.545       .  S
O2912     Zr2924   2.427       .  S
O2913     Zr2927   2.470       .  S
O2913      C2914   1.296       .  A
C2914      C3185   1.500       .  S
O2915     Zr2924   2.437       .  S
O2915      C2917   1.286       .  A
O2916     Zr2928   2.441   1_556  S
O2916      C2917   1.292       .  A
C2917      C3308   1.471       .  S
O2918     Zr2921   2.440       .  S
O2918      C2920   1.280       .  A
O2919     Zr2927   2.465       .  S
O2919      C2920   1.294       .  A
C2920      C3212   1.489       .  S
Zr2921     O2922   2.440       .  S
Zr2921     O2923   2.434   1_556  S
Zr2921     O2930   2.378       .  S
Zr2921     O2933   2.394   1_556  S
Zr2921     O2931   2.382   1_556  S
O2922      H2947   0.990       .  S
O2923      H2943   0.990       .  S
Zr2924     O2925   2.434       .  S
Zr2924     O2926   2.434       .  S
Zr2924     O2929   2.373       .  S
Zr2924     O2934   2.364       .  S
Zr2924     O2932   2.374       .  S
O2925      H2941   0.990       .  S
O2926      H2940   0.990       .  S
O2926      H2950   0.990       .  S
Zr2927     O2930   2.411       .  S
Zr2927     O2933   2.440   1_556  S
Zr2928     O2929   2.406   1_554  S
Zr2928     O2934   2.415   1_554  S
O2929      H2937   0.964       .  S
O2932      H2936   0.966       .  S
O2933      H2938   0.966       .  S
O2951     Zr2963   2.380       .  S
O2951      C2953   1.270       .  A
O2952      C2953   1.303       .  A
C2953      C3173   1.495       .  S
O2954      C2956   1.299       .  A
O2955      C2956   1.288       .  A
C2956      C3200   1.492       .  S
O2957     Zr2966   2.464       .  S
O2957      C2959   1.293       .  A
O2958     Zr2989   2.365       .  S
O2958      C2959   1.278   1_565  A
C2959      C3392   1.450       .  S
O2960     Zr2963   2.381       .  S
O2960      C2962   1.258       .  A
O2961      C2962   1.289       .  A
C2962      C3233   1.484       .  S
Zr2963     O2964   2.438       .  S
Zr2963     O2965   2.439       .  S
Zr2963     O2969   2.337       .  S
Zr2963     O2970   2.379       .  S
Zr2963     O2993   2.376       .  S
Zr2963     O2995   2.385       .  S
O2964      H3007   0.990       .  S
O2965      H3006   0.990       .  S
O2965      H3010   0.990       .  S
Zr2966     O2968   2.436   1_545  S
Zr2966     O2994   2.364   1_545  S
Zr2966     O2996   2.376   1_545  S
O2967      H3008   0.990       .  S
O2967      H3011   0.990       .  S
O2968      H3001   0.990       .  S
O2970      H2997   0.966       .  S
O2971     Zr2983   2.449       .  S
O2971      C2973   1.289   1_565  A
O2972     Zr2990   2.352       .  S
O2972      C2973   1.277       .  A
C2973      C3377   1.442   1_545  S
O2974     Zr2986   2.391       .  S
O2974      C2976   1.265       .  A
O2975     Zr2989   2.489       .  S
O2975      C2976   1.287       .  A
C2976      C3248   1.503       .  S
O2977     Zr2986   2.402       .  S
O2977      C2979   1.279       .  A
O2978     Zr2990   2.494   1_565  S
O2978      C2979   1.299       .  A
C2979      C3161   1.496       .  S
O2980     Zr2983   2.470       .  S
O2980      C2982   1.294       .  A
O2981     Zr2989   2.437       .  S
O2981      C2982   1.290       .  A
C2982      C3188   1.486       .  S
Zr2983     O2984   2.435       .  S
Zr2983     O2991   2.374       .  S
Zr2983     O2992   2.362       .  S
O2984      H3004   0.990       .  S
O2984      H3009   0.990       .  S
O2985      H3005   0.990       .  S
Zr2986     O2987   2.432       .  S
Zr2986     O2988   2.430       .  S
Zr2986     O2992   2.390       .  S
Zr2986     O2991   2.356       .  S
Zr2986     O2996   2.359       .  S
Zr2986     O2994   2.377       .  S
O2987      H3003   0.990       .  S
O2988      H3002   0.990       .  S
O2988      H3012   0.989       .  S
Zr2989     O2992   2.406       .  S
Zr2989     O2994   2.431       .  S
Zr2990     O2991   2.388   1_545  S
Zr2990     O2996   2.380   1_545  S
O2991      H2999   0.965       .  S
O2994      H2998   0.962       .  S
O2995      H3000   0.964       .  S
O3013     Zr3025   2.528       .  S
O3013      C3015   1.304       .  A
O3014     Zr3051   2.425   1_554  S
O3014      C3015   1.289       .  A
C3015      C3221   1.500       .  S
O3016     Zr3028   2.365       .  S
O3016      C3018   1.270   1_556  A
O3017     Zr3052   2.493       .  S
O3017      C3018   1.297       .  A
C3018      C3344   1.477   1_554  S
O3019     Zr3028   2.388       .  S
O3019      C3021   1.253       .  A
O3020     Zr3051   2.530       .  S
O3020      C3021   1.292       .  A
C3021      C3464   1.508       .  S
O3022     Zr3025   2.459       .  S
O3022      C3024   1.292       .  A
O3023     Zr3052   2.442       .  S
O3023      C3024   1.291       .  A
C3024      C3149   1.485       .  S
Zr3025     O3026   2.434       .  S
Zr3025     O3027   2.436       .  S
Zr3025     O3031   2.365       .  S
Zr3025     O3032   2.404       .  S
Zr3025     O3055   2.383       .  S
Zr3025     O3057   2.351       .  S
O3026      H3069   0.990       .  S
O3027      H3068   0.990       .  S
O3027      H3072   0.990       .  S
Zr3028     O3029   2.435   1_556  S
Zr3028     O3030   2.437       .  S
Zr3028     O3032   2.381   1_556  S
Zr3028     O3031   2.383   1_556  S
Zr3028     O3056   2.375       .  S
Zr3028     O3058   2.342       .  S
O3029      H3070   0.988       .  S
O3029      H3073   0.990       .  S
O3030      H3063   0.990       .  S
O3031     Zr3051   2.402   1_554  S
O3032     Zr3052   2.393       .  S
O3032      H3059   0.966       .  S
O3033     Zr3045   2.411       .  S
O3033      C3035   1.268       .  A
O3034     Zr3052   2.463       .  S
O3034      C3035   1.275       .  A
C3035      C3449   1.494       .  S
O3036     Zr3048   2.476       .  S
O3036      C3038   1.297       .  A
O3037     Zr3051   2.461       .  S
O3037      C3038   1.298       .  A
C3038      C3140   1.491       .  S
O3039     Zr3048   2.556       .  S
O3039      C3041   1.311       .  A
O3040     Zr3052   2.366   1_556  S
O3040      C3041   1.277       .  A
C3041      C3209   1.512       .  S
O3042     Zr3045   2.388       .  S
O3042      C3044   1.276   1_554  A
O3043     Zr3051   2.532       .  S
O3043      C3044   1.308       .  A
C3044      C3332   1.502   1_556  S
Zr3045     O3046   2.431   1_554  S
Zr3045     O3047   2.420       .  S
Zr3045     O3053   2.373   1_554  S
Zr3045     O3054   2.361   1_554  S
Zr3045     O3057   2.355       .  S
Zr3045     O3055   2.378       .  S
O3046      H3066   0.985       .  S
O3046      H3071   0.988       .  S
O3047      H3067   0.990       .  S
Zr3048     O3049   2.434       .  S
Zr3048     O3050   2.435       .  S
Zr3048     O3054   2.412       .  S
Zr3048     O3053   2.340       .  S
Zr3048     O3058   2.352       .  S
Zr3048     O3056   2.366       .  S
O3049      H3065   0.990       .  S
O3050      H3064   0.990       .  S
O3050      H3074   0.990       .  S
Zr3051     O3054   2.410       .  S
Zr3051     O3056   2.432       .  S
Zr3051     O3057   2.379   1_556  S
Zr3052     O3053   2.423   1_554  S
Zr3052     O3055   2.407       .  S
Zr3052     O3058   2.365   1_554  S
O3053      H3061   0.962       .  S
O3056      H3060   0.965       .  S
O3057      H3062   0.962       .  S
O3075     Zr3087   2.381       .  S
O3075      C3077   1.276       .  A
O3076     Zr3113   2.506       .  S
O3076      C3077   1.304       .  A
C3077      C3368   1.489       .  S
O3078     Zr3090   2.467       .  S
O3078      C3080   1.293       .  A
O3079     Zr3114   2.441       .  S
O3079      C3080   1.291       .  A
C3080      C3137   1.491       .  S
O3081     Zr3090   2.419       .  S
O3081      C3083   1.285       .  A
O3082     Zr3113   2.409       .  S
O3082      C3083   1.286       .  A
C3083      C3269   1.474       .  S
O3084     Zr3087   2.399       .  S
O3084      C3086   1.278       .  A
O3085     Zr3114   2.484       .  S
O3085      C3086   1.298       .  A
C3086      C3176   1.480       .  S
Zr3087     O3088   2.436       .  S
Zr3087     O3089   2.435       .  S
Zr3087     O3093   2.363       .  S
Zr3087     O3094   2.360       .  S
Zr3087     O3117   2.355       .  S
Zr3087     O3119   2.377       .  S
O3088      H3131   0.990       .  S
O3089      H3130   0.990       .  S
O3089      H3134   0.990       .  S
Zr3090     O3091   2.434       .  S
Zr3090     O3092   2.433       .  S
Zr3090     O3094   2.364       .  S
Zr3090     O3093   2.379       .  S
Zr3090     O3118   2.387       .  S
Zr3090     O3120   2.342       .  S
O3091      H3132   0.990       .  S
O3091      H3135   0.990       .  S
O3092      H3125   0.990       .  S
O3093     Zr3113   2.403       .  S
O3094     Zr3114   2.386       .  S
O3094      H3121   0.966       .  S
O3095     Zr3107   2.378       .  S
O3095      C3097   1.275       .  A
O3096     Zr3114   2.437       .  S
O3096      C3097   1.293       .  A
C3097      C3260   1.465       .  S
O3098     Zr3110   2.405       .  S
O3098      C3100   1.280       .  A
O3099     Zr3113   2.506       .  S
O3099      C3100   1.304       .  A
C3100      C3164   1.510       .  S
O3101     Zr3110   2.423       .  S
O3101      C3103   1.280       .  A
O3102     Zr3114   2.458       .  S
O3102      C3103   1.292       .  A
C3103      C3356   1.495       .  S
O3104     Zr3107   2.451       .  S
O3104      C3106   1.289       .  A
O3105     Zr3113   2.442       .  S
O3105      C3106   1.290       .  A
C3106      C3152   1.490       .  S
Zr3107     O3108   2.434       .  S
Zr3107     O3109   2.434       .  S
Zr3107     O3115   2.378       .  S
Zr3107     O3116   2.343       .  S
Zr3107     O3119   2.346       .  S
Zr3107     O3117   2.383       .  S
O3108      H3128   0.990       .  S
O3108      H3133   0.990       .  S
O3109      H3129   0.990       .  S
Zr3110     O3111   2.435       .  S
Zr3110     O3112   2.435       .  S
Zr3110     O3116   2.375       .  S
Zr3110     O3115   2.365       .  S
Zr3110     O3120   2.349       .  S
Zr3110     O3118   2.362       .  S
O3111      H3127   0.990       .  S
O3112      H3126   0.990       .  S
O3112      H3136   0.988       .  S
Zr3113     O3116   2.383       .  S
Zr3113     O3118   2.405       .  S
Zr3113     O3119   2.376       .  S
Zr3114     O3115   2.410       .  S
Zr3114     O3117   2.379       .  S
Zr3114     O3120   2.377       .  S
O3115      H3123   0.966       .  S
O3118      H3122   0.966       .  S
O3119      H3124   0.965       .  S
C3137      C3138   1.406       .  A
C3137      C3142   1.412       .  A
C3138      C3139   1.408       .  A
C3138      H3143   1.085       .  S
C3139      C3140   1.413       .  A
C3139      C3146   1.443       .  S
C3140      C3141   1.406       .  A
C3141      C3142   1.408       .  A
C3141      H3144   1.085       .  S
C3142      C3145   1.443       .  S
C3145      N3147   1.157       .  T
C3146      N3148   1.157       .  T
C3149      C3150   1.403       .  A
C3149      C3154   1.411       .  A
C3150      C3151   1.406       .  A
C3150      H3155   1.085       .  S
C3151      C3152   1.415       .  A
C3151      C3158   1.444       .  S
C3152      C3153   1.407       .  A
C3153      C3154   1.407       .  A
C3153      H3156   1.085       .  S
C3154      C3157   1.443       .  S
C3157      N3159   1.157       .  T
C3158      N3160   1.157       .  T
C3161      C3162   1.399       .  A
C3161      C3166   1.421       .  A
C3162      C3163   1.409       .  A
C3162      H3167   1.085       .  S
C3163      C3164   1.429       .  A
C3163      C3170   1.444       .  S
C3164      C3165   1.400       .  A
C3165      C3166   1.407       .  A
C3165      H3168   1.079       .  S
C3166      C3169   1.444       .  S
C3169      N3171   1.157       .  T
C3170      N3172   1.157       .  T
C3173      C3174   1.408       .  A
C3173      C3178   1.411       .  A
C3174      C3175   1.386       .  A
C3174      H3179   1.082       .  S
C3175      C3176   1.406       .  A
C3175      C3182   1.447       .  S
C3176      C3177   1.416       .  A
C3177      C3178   1.422       .  A
C3177      H3180   1.084       .  S
C3178      C3181   1.441       .  S
C3181      N3183   1.157       .  T
C3182      N3184   1.157       .  T
C3185      C3190   1.417       .  A
C3186      C3187   1.397       .  A
C3186      H3191   1.085       .  S
C3187      C3194   1.445       .  S
C3188      C3189   1.408       .  A
C3189      C3190   1.416       .  A
C3189      H3192   1.084       .  S
C3190      C3193   1.443       .  S
C3193      N3195   1.157       .  T
C3194      N3196   1.157       .  T
C3197      C3198   1.405       .  A
C3197      C3202   1.408       .  A
C3198      C3199   1.408       .  A
C3198      H3203   1.085       .  S
C3199      C3200   1.414       .  A
C3199      C3206   1.442       .  S
C3201      H3204   1.085   1_545  S
C3205      N3207   1.157       .  T
C3206      N3208   1.157       .  T
C3209      C3210   1.409       .  A
C3209      C3214   1.433       .  A
C3210      C3211   1.418       .  A
C3210      H3215   1.084       .  S
C3211      C3212   1.418       .  A
C3211      C3218   1.443       .  S
C3212      C3213   1.389       .  A
C3213      C3214   1.395       .  A
C3213      H3216   1.087       .  S
C3214      C3217   1.444   1_556  S
C3217      N3219   1.157       .  T
C3218      N3220   1.157       .  T
C3221      C3222   1.393       .  A
C3221      C3226   1.416       .  A
C3222      C3223   1.406       .  A
C3222      H3227   1.084       .  S
C3223      C3224   1.429       .  A
C3223      C3230   1.442       .  S
C3224      C3225   1.400       .  A
C3225      C3226   1.414       .  A
C3225      H3228   1.084       .  S
C3226      C3229   1.430       .  S
C3229      N3231   1.154       .  T
C3230      N3232   1.157       .  T
C3233      C3234   1.405       .  A
C3233      C3238   1.418       .  A
C3234      C3235   1.406       .  A
C3234      H3239   1.085       .  S
C3235      C3236   1.419       .  A
C3235      C3242   1.444       .  S
C3236      C3237   1.404       .  A
C3237      C3238   1.403       .  A
C3237      H3240   1.081       .  S
C3238      C3241   1.445       .  S
C3241      N3243   1.157       .  T
C3242      N3244   1.157       .  T
C3245      C3246   1.407       .  A
C3245      C3250   1.422       .  A
C3246      C3247   1.410       .  A
C3246      H3251   1.084       .  S
C3247      C3248   1.420       .  A
C3247      C3254   1.444       .  S
C3248      C3249   1.406       .  A
C3249      C3250   1.411       .  A
C3249      H3252   1.084       .  S
C3250      C3253   1.443       .  S
C3253      N3255   1.157       .  T
C3254      N3256   1.157       .  T
C3257      C3258   1.395       .  A
C3257      C3262   1.416       .  A
C3258      C3259   1.395       .  A
C3258      H3263   1.085       .  S
C3259      C3260   1.421       .  A
C3259      C3266   1.444       .  S
C3260      C3261   1.394       .  A
C3261      C3262   1.385       .  A
C3261      H3264   1.086       .  S
C3262      C3265   1.444       .  S
C3265      N3267   1.157       .  T
C3266      N3268   1.157       .  T
C3269      C3270   1.411       .  A
C3269      C3274   1.413       .  A
C3270      C3271   1.399       .  A
C3270      H3275   1.084       .  S
C3271      C3272   1.406       .  A
C3271      C3278   1.443       .  S
C3272      C3273   1.403       .  A
C3273      C3274   1.384       .  A
C3273      H3276   1.086       .  S
C3274      C3277   1.444       .  S
C3277      N3279   1.157       .  T
C3278      N3280   1.157       .  T
C3281      C3282   1.404       .  A
C3281      C3286   1.418       .  A
C3282      C3283   1.394       .  A
C3282      H3287   1.085       .  S
C3283      C3284   1.409       .  A
C3283      C3290   1.446       .  S
C3284      C3285   1.398       .  A
C3285      C3286   1.400       .  A
C3285      H3288   1.085       .  S
C3286      C3289   1.444       .  S
C3289      N3291   1.157   1_655  T
C3290      N3292   1.157       .  T
C3293      C3298   1.407       .  A
C3294      C3295   1.407       .  A
C3294      H3299   1.085       .  S
C3295      C3302   1.443       .  S
C3296      C3297   1.408       .  A
C3297      C3298   1.399       .  A
C3297      H3300   1.085       .  S
C3298      C3301   1.445       .  S
C3301      N3303   1.157       .  T
C3302      N3304   1.157       .  T
C3305      C3306   1.410       .  A
C3305      C3310   1.407       .  A
C3306      C3307   1.400       .  A
C3306      H3311   1.085       .  S
C3307      C3308   1.406       .  A
C3307      C3314   1.444       .  S
C3308      C3309   1.404       .  A
C3309      C3310   1.402       .  A
C3309      H3312   1.084       .  S
C3310      C3313   1.439       .  S
C3313      N3315   1.156       .  T
C3314      N3316   1.157       .  T
C3317      C3318   1.409       .  A
C3317      C3322   1.397       .  A
C3318      C3319   1.405       .  A
C3318      H3323   1.085       .  S
C3319      C3320   1.415       .  A
C3319      C3326   1.445       .  S
C3320      C3321   1.408       .  A
C3321      C3322   1.409       .  A
C3321      H3324   1.084       .  S
C3322      C3325   1.439       .  S
C3325      N3327   1.157       .  T
C3326      N3328   1.157       .  T
C3329      C3330   1.394       .  A
C3329      C3334   1.432   1_554  A
C3330      C3331   1.408       .  A
C3330      H3335   1.085       .  S
C3331      C3332   1.433       .  A
C3331      C3338   1.444       .  S
C3332      C3333   1.394   1_554  A
C3333      C3334   1.405       .  A
C3333      H3336   1.085       .  S
C3334      C3337   1.446       .  S
C3337      N3339   1.157       .  T
C3338      N3340   1.157       .  T
C3341      C3342   1.406       .  A
C3341      C3346   1.410       .  A
C3342      C3343   1.402   1_556  A
C3342      H3347   1.085   1_556  S
C3343      C3344   1.409   1_554  A
C3343      C3350   1.444       .  S
C3344      C3345   1.408       .  A
C3345      C3346   1.407       .  A
C3345      H3348   1.083       .  S
C3346      C3349   1.443       .  S
C3349      N3351   1.157       .  T
C3350      N3352   1.157       .  T
C3353      C3354   1.413       .  A
C3353      C3358   1.403       .  A
C3354      C3355   1.401       .  A
C3354      H3359   1.085       .  S
C3355      C3356   1.410       .  A
C3355      C3362   1.444       .  S
C3356      C3357   1.417       .  A
C3357      C3358   1.403       .  A
C3357      H3360   1.084       .  S
C3358      C3361   1.443       .  S
C3361      N3363   1.157       .  T
C3362      N3364   1.157       .  T
C3365      C3366   1.401       .  A
C3365      C3370   1.441       .  A
C3366      C3367   1.410       .  A
C3366      H3371   1.084       .  S
C3367      C3368   1.423       .  A
C3367      C3374   1.443       .  S
C3368      C3369   1.386       .  A
C3369      C3370   1.398       .  A
C3369      H3372   1.086       .  S
C3370      C3373   1.444       .  S
C3373      N3375   1.157       .  T
C3374      N3376   1.157       .  T
C3377      C3378   1.400       .  A
C3378      C3379   1.391       .  A
C3378      H3383   1.085       .  S
C3379      C3386   1.442       .  S
C3380      C3381   1.392       .  A
C3381      C3382   1.384       .  A
C3381      H3384   1.083       .  S
C3382      C3385   1.444       .  S
C3385      N3387   1.157       .  T
C3386      N3388   1.156       .  T
C3389      C3390   1.395       .  A
C3390      C3391   1.391       .  A
C3390      H3395   1.085       .  S
C3391      C3398   1.438       .  S
C3392      C3393   1.390   1_545  A
C3393      C3394   1.390       .  A
C3393      H3396   1.086       .  S
C3394      C3397   1.442       .  S
C3397      N3399   1.157       .  T
C3398      N3400   1.155       .  T
C3401      C3402   1.406   1_655  A
C3401      C3406   1.420       .  A
C3402      C3403   1.409       .  A
C3403      C3404   1.420   1_455  A
C3403      C3410   1.444       .  S
C3404      C3405   1.407       .  A
C3405      C3406   1.414       .  A
C3405      H3408   1.085       .  S
C3406      C3409   1.443       .  S
C3409      N3411   1.157       .  T
C3413      C3414   1.405   1_655  A
C3413      C3418   1.421       .  A
C3414      C3415   1.411       .  A
C3414      H3419   1.085       .  S
C3415      C3416   1.420   1_455  A
C3415      C3422   1.443       .  S
C3416      C3417   1.401       .  A
C3417      C3418   1.406       .  A
C3417      H3420   1.081       .  S
C3418      C3421   1.445       .  S
C3421      N3423   1.157       .  T
C3422      N3424   1.157       .  T
C3425      C3430   1.422       .  A
C3426      C3427   1.394       .  A
C3426      H3431   1.084       .  S
C3427      C3434   1.445       .  S
C3428      C3429   1.395       .  A
C3429      C3430   1.389       .  A
C3429      H3432   1.086       .  S
C3430      C3433   1.447       .  S
C3433      N3435   1.158   1_565  T
C3434      N3436   1.157       .  T
C3437      C3442   1.404       .  A
C3438      C3439   1.390       .  A
C3438      H3443   1.086       .  S
C3439      C3440   1.414       .  A
C3439      C3446   1.446       .  S
C3441      C3442   1.389       .  A
C3441      H3444   1.085       .  S
C3445      N3447   1.157       .  T
C3446      N3448   1.157       .  T
C3449      C3450   1.392       .  A
C3449      C3454   1.412   1_554  A
C3450      C3451   1.397       .  A
C3450      H3455   1.086       .  S
C3451      C3452   1.423   1_554  A
C3451      C3458   1.433       .  S
C3452      C3453   1.417       .  A
C3453      C3454   1.415       .  A
C3453      H3456   1.084       .  S
C3454      C3457   1.442       .  S
C3457      N3459   1.157       .  T
C3458      N3460   1.155       .  T
C3461      C3462   1.424       .  A
C3461      C3466   1.396       .  A
C3462      C3463   1.414       .  A
C3462      H3467   1.084       .  S
C3463      C3464   1.406   1_554  A
C3463      C3470   1.441       .  S
C3464      C3465   1.417       .  A
C3465      C3466   1.395   1_556  A
C3465      H3468   1.073       .  S
C3466      C3469   1.442       .  S
C3469      N3471   1.156       .  T
C3470      N3472   1.157       .  T
C3473      C3474   1.411   1_554  A
C3473      C3478   1.425       .  A
C3474      C3475   1.421       .  A
C3474      H3479   1.084       .  S
C3475      C3476   1.425   1_556  A
C3475      C3482   1.444       .  S
C3477      H3480   1.084       .  S
C3481      N3483   1.157       .  T
C3482      N3484   1.157       .  T
C3485      C3486   1.425       .  A
C3486      C3487   1.444       .  A
C3486      H3491   1.083       .  S
C3487      C3488   1.419       .  A
C3487      C3494   1.438       .  S
C3489      C3490   1.408       .  A
C3489      H3492   1.085       .  S
C3490      C3493   1.444       .  S
C3493      N3495   1.157       .  T
C3494      N3496   1.157       .  T
C3497      C3498   1.388       .  A
C3498      C3499   1.381   1_556  A
C3498      H3503   1.087       .  S
C3499      C3506   1.443   1_554  S
C3500      C3501   1.402       .  A
C3501      C3502   1.387       .  A
C3501      H3504   1.086       .  S
C3502      C3505   1.441       .  S
C3505      N3507   1.156       .  T
C3506      N3508   1.157       .  T
C3509      C3510   1.400   1_455  A
C3510      C3511   1.383       .  A
C3510      H3515   1.081       .  S
C3511      C3512   1.400   1_655  A
C3511      C3518   1.446   1_556  S
C3513      C3514   1.391       .  A
C3513      H3516   1.084       .  S
C3514      C3517   1.444       .  S
C3517      N3519   1.157       .  T
C3518      N3520   1.157       .  T
