geometry optimzed in LAMMPS
_audit_creation_date              2020-11-30 
_audit_creation_method            'lammps2cif' 
_symmetry_space_group_name_H-M    'P1' 
_symmetry_Int_Tables_number       1 
_symmetry_cell_setting            triclinic 
loop_ 
_symmetry_equiv_pos_as_xyz 
  x,y,z 
_cell_length_a                    31.29419917 
_cell_length_b                    31.206600477750058 
_cell_length_c                    31.509211050171835 
_cell_angle_alpha                 88.34382287558849 
_cell_angle_beta                  91.57571824596513 
_cell_angle_gamma                 119.04052034503783 
loop_ 
_atom_site_label 
_atom_site_type_symbol 
_atom_site_fract_x 
_atom_site_fract_y 
_atom_site_fract_z 
_atom_site_charge 
C1          C  0.23872502  0.27665270  0.06903741     0.86300
C2          C  0.20534847  0.23233981  0.09543754    -0.53900
C3          C  0.22021119  0.19814883  0.10229239     0.09200
C4          C  0.27421205  0.21831749  0.08706558     0.20200
C5          C  0.28632047  0.30244022  0.09457806    -0.54600
C6          C  0.30545767  0.27209187  0.10640494     0.09300
C7          C  0.25275694  0.25884163  0.03111351    -0.54200
C8          C  0.27010324  0.22820168  0.03863936     0.09900
H9          H  0.16747859  0.22370590  0.09836025     0.14400
H10         H  0.28935148  0.19330586  0.09455083     0.00200
H11         H  0.30288896  0.34068290  0.10257771     0.14700
H12         H  0.24806081  0.26936401  0.99902356     0.14500
C13         C  0.01582280  0.26464680  0.06869530     0.86300
C14         C  0.00194867  0.29919726  0.09061728    -0.53900
C15         C  0.45386336  0.28232027  0.09608773     0.09200
C16         C  0.42267599  0.22732623  0.08298341     0.20200
C17         C  0.99639948  0.21804039  0.09622108    -0.54600
C18         C  0.44680637  0.19744497  0.10510680     0.09300
C19         C  0.48323152  0.24704427  0.02909347    -0.54200
C20         C  0.43557260  0.22904982  0.03555884     0.09900
H21         H  0.02815004  0.33799359  0.09234230     0.14400
H22         H  0.38300068  0.21165506  0.08883622     0.00200
H23         H  0.01881974  0.20160260  0.10481035     0.14700
H24         H  0.49751743  0.24970716  0.99802643     0.14500
C25         C  0.22993961  0.48039440  0.06703158     0.86300
C26         C  0.27862736  0.49541890  0.08822542    -0.53900
C27         C  0.30883801  0.04402275  0.09425546     0.09200
C28         C  0.28066590  0.07345936  0.08090619     0.20200
C29         C  0.20350308  0.49615301  0.09641504    -0.54600
C30         C  0.22695513  0.04672655  0.10156379     0.09300
C31         C  0.24240312  0.01318343  0.02750041    -0.54200
C32         C  0.26938233  0.06080359  0.03384737     0.09900
H33         H  0.29249597  0.46956520  0.09036692     0.14400
H34         H  0.30210256  0.11338626  0.08682928     0.00200
H35         H  0.16521963  0.47077340  0.10119585     0.14700
H36         H  0.23200760  0.99917668  0.99585267     0.14500
O37         O  0.23076072  0.34462007  0.04403556    -0.82000
C38         C  0.07514926  0.30333744  0.93437004     0.97400
O39         O  0.07294833  0.27193680  0.96148115    -0.71100
O40         O  0.15106601  0.27681459  0.94015039    -0.73500
Al41       Al  0.12517583  0.27656040  0.99475203     1.49000
C42         C  0.19493988  0.30182120  0.92985151     0.92600
O43         O  0.22144964  0.39968757  0.93961467    -0.80900
O44         O  0.15949177  0.40684151  0.04624994    -0.74500
Al45       Al  0.22310050  0.37137017  0.99218975     1.90100
O46         O  0.17200553  0.42604806  0.95868392    -0.73500
O47         O  0.07596657  0.32964554  0.02927064    -0.73400
O48         O  0.09622368  0.34793981  0.94289924    -0.79000
O49         O  0.09239576  0.27055056  0.04722973    -0.77200
O50         O  0.15845117  0.34096088  0.99540812    -1.13400
O51         O  0.17298364  0.27031850  0.02799681    -0.72600
C52         C  0.21108375  0.29924659  0.04915320     0.98100
C53         C  0.19851690  0.42213863  0.93111178     0.94500
Al54       Al  0.12771779  0.37520842  0.99492167     1.55600
O55         O  0.22628672  0.32542647  0.95820693    -0.77200
C56         C  0.06648337  0.29111690  0.05077468     0.98700
C57         C  0.20550650  0.43119375  0.04881649     0.93600
O58         O  0.23220110  0.42325703  0.02457296    -0.82500
N59         N  0.15829952  0.11371400  0.13141444    -0.03600
C60         C  0.11122736  0.10828845  0.13093877    -0.01100
C61         C  0.09911304  0.11446395  0.08952308    -0.23900
C62         C  0.14225293  0.13776816  0.06801275    -0.24100
C63         C  0.17913109  0.14588905  0.09776442    -0.01200
H64         H  0.06643806  0.11585596  0.07941142     0.12600
H65         H  0.14677754  0.15888979  0.03896881     0.12700
N66         N  0.16271846  0.06916123  0.13045552    -0.03600
C67         C  0.18940304  0.06557622  0.09713164    -0.01100
C68         C  0.15136057  0.53971120  0.06378832    -0.23900
C69         C  0.10778574  0.51147259  0.08399947    -0.24100
C70         C  0.11889151  0.02629354  0.12655352    -0.01200
H71         H  0.15941572  0.52899259  0.03395019     0.12600
H72         H  0.08020063  0.47703587  0.07183992     0.12700
N73         N  0.43295524  0.34256355  0.12996432    -0.03600
C74         C  0.47008268  0.39007154  0.12754139    -0.01100
C75         C  0.97644389  0.39954729  0.08588179    -0.23900
C76         C  0.95520511  0.35580751  0.06463897    -0.24100
C77         C  0.43661537  0.32062722  0.09420984    -0.01200
H78         H  0.00325326  0.43385830  0.07245419     0.12600
H79         H  0.96591004  0.35167650  0.03327799     0.12700
N80         N  0.38553456  0.33616529  0.13921930    -0.03600
C81         C  0.34654998  0.28928291  0.13978156    -0.01100
C82         C  0.33215686  0.27792526  0.18153653    -0.23900
C83         C  0.35569649  0.32109363  0.20385431    -0.24100
C84         C  0.38161683  0.35868858  0.17451682    -0.01200
H85         H  0.29944673  0.24578077  0.19231529     0.12600
H86         H  0.34287983  0.32591597  0.23400369     0.12700
C87         C  0.30525649  0.41871192  0.19766178     0.86300
C88         C  0.32546517  0.46479114  0.16957718    -0.53900
C89         C  0.37419620  0.48428636  0.15981963     0.09200
C90         C  0.39819579  0.45488788  0.18317609     0.20200
C91         C  0.31794519  0.38324828  0.17612179    -0.54600
C92         C  0.36668738  0.39900740  0.17098204     0.09300
C93         C  0.33712196  0.43541235  0.23667569    -0.54200
C94         C  0.38476916  0.45459081  0.23034644     0.09900
H95         H  0.30371873  0.48196624  0.16109983     0.14400
H96         H  0.43789065  0.47055107  0.17769558     0.00200
H97         H  0.29065154  0.34501574  0.17269906     0.14700
H98         H  0.32286639  0.43440202  0.26775311     0.14500
C99         C  0.09433369  0.19964045  0.19874328     0.86300
C100        C  0.12001469  0.17995071  0.17157650    -0.53900
C101        C  0.09289834  0.13100579  0.16276631     0.09200
C102        C  0.04095357  0.10614882  0.18471378     0.20200
C103        C  0.04503539  0.18576368  0.17755116    -0.54600
C104        C  0.01441076  0.13659172  0.17166356     0.09300
C105        C  0.08256038  0.16781314  0.23799019    -0.54200
C106        C  0.05499655  0.11986883  0.23175190     0.09900
H107        H  0.15789866  0.20198380  0.16379154     0.14400
H108        H  0.01836902  0.06620523  0.17931920     0.00200
H109        H  0.03202948  0.21226355  0.17507085     0.14700
H110        H  0.09807002  0.18209929  0.26856957     0.14500
C111        C  0.08446144  0.41166318  0.19599322     0.86300
C112        C  0.03715928  0.38282082  0.16920202    -0.53900
C113        C  0.01265698  0.40844559  0.15834201     0.09200
C114        C  0.03889333  0.46111935  0.17736721     0.20200
C115        C  0.11618523  0.46009767  0.17242579    -0.54600
C116        C  0.09292943  0.48606868  0.16047834     0.09300
C117        C  0.06802383  0.42628215  0.23382209    -0.54200
C118        C  0.04443720  0.45130149  0.22613572     0.09900
H119        H  0.02340184  0.34475607  0.16191880     0.14400
H120        H  0.01978426  0.48262881  0.17038649     0.00200
H121        H  0.15439696  0.47306126  0.16687708     0.14700
H122        H  0.07389232  0.41631306  0.26585277     0.14500
O123        O  0.23144334  0.34909428  0.21840761    -0.82000
C124        C  0.11871158  0.37225544  0.33466964     0.97400
O125        O  0.14000475  0.40429465  0.30574401    -0.71100
O126        O  0.21978412  0.40983785  0.32263042    -0.74700
Al127      Al  0.18792498  0.40647861  0.27002795     1.49000
C128        C  0.24371714  0.38834827  0.33179488     0.92600
O129        O  0.17430518  0.28300211  0.32241646    -0.80900
O130        O  0.10027523  0.27636275  0.21609411    -0.74500
Al131      Al  0.20149377  0.31609198  0.26968392     1.90100
O132        O  0.09903944  0.25284099  0.29957236    -0.73500
O133        O  0.08434603  0.34767846  0.23728629    -0.73400
O134        O  0.09629641  0.32781994  0.32446580    -0.79000
O135        O  0.15567551  0.40763587  0.21818824    -0.77200
O136        O  0.16305725  0.34230751  0.26842678    -1.13400
O137        O  0.24294425  0.42150209  0.23620958    -0.72600
C138        C  0.25462776  0.39530093  0.21468360     0.98100
C139        C  0.12909947  0.25767537  0.32852053     0.94500
Al140      Al  0.09920965  0.30413581  0.26888119     1.55600
O141        O  0.24972293  0.36309470  0.30452205    -0.77200
C142        C  0.10971701  0.38531535  0.21462406     0.98700
C143        C  0.12184547  0.25103034  0.21401741     0.93600
O144        O  0.16023952  0.26197805  0.23569484    -0.82500
N145        N  0.43129251  0.11496827  0.13733038    -0.03600
C146        C  0.45860830  0.11998230  0.17337376    -0.01100
C147        C  0.94588206  0.14289175  0.20240207    -0.23900
C148        C  0.42446663  0.16780812  0.17847820    -0.24100
C149        C  0.42267326  0.15442226  0.13678003    -0.01200
H150        H  0.96305435  0.15501944  0.23327125     0.12600
H151        H  0.92447022  0.19894826  0.19019635     0.12700
N152        N  0.39053783  0.06702648  0.12941573    -0.03600
C153        C  0.39914456  0.02750773  0.13002788    -0.01100
C154        C  0.39657897  0.51529231  0.08619856    -0.23900
C155        C  0.37858211  0.03892010  0.06437982    -0.24100
C156        C  0.36405615  0.06256237  0.09293638    -0.01200
H157        H  0.39699466  0.48297833  0.07510231     0.12600
H158        H  0.35952123  0.52810046  0.03219249     0.12700
C159        C  0.42936542  0.37325434  0.53155154     0.86300
C160        C  0.45858977  0.35527596  0.50756646    -0.53900
C161        C  0.43674567  0.30510916  0.50254229     0.09200
C162        C  0.38231003  0.27922569  0.52009646     0.20200
C163        C  0.38233002  0.35709256  0.50705386    -0.54600
C164        C  0.35377619  0.30719319  0.50244452     0.09300
C165        C  0.41476920  0.34245669  0.57169796    -0.54200
C166        C  0.39135091  0.29434786  0.56652434     0.09900
H167        H  0.49774894  0.37907137  0.50620628     0.14400
H168        H  0.36200189  0.23899198  0.51555263     0.00200
H169        H  0.36796071  0.38238464  0.50371351     0.14700
H170        H  0.42396588  0.35775529  0.60261213     0.14500
C171        C  0.42079332  0.08729445  0.52775192     0.86300
C172        C  0.37270543  0.05708715  0.50294662    -0.53900
C173        C  0.34838014  0.08233160  0.49103918     0.09200
C174        C  0.37444492  0.13570057  0.50822545     0.20200
C175        C  0.45118296  0.13387465  0.50140578    -0.54600
C176        C  0.42721324  0.15906487  0.48872502     0.09300
C177        C  0.40688205  0.10478834  0.56541020    -0.54200
C178        C  0.38212316  0.12872548  0.55768162     0.09900
H179        H  0.35934974  0.01899504  0.49588320     0.14400
H180        H  0.35483747  0.15649768  0.50041451     0.00200
H181        H  0.48904515  0.14628908  0.49474353     0.14700
H182        H  0.41491101  0.09688886  0.59751841     0.14500
C183        C  0.14155454  0.09044966  0.53043725     0.86300
C184        C  0.16271262  0.13696861  0.50316119    -0.53900
C185        C  0.21131493  0.15576668  0.49343607     0.09200
C186        C  0.23494334  0.12696139  0.51720037     0.20200
C187        C  0.15469678  0.05501670  0.50920391    -0.54600
C188        C  0.20371642  0.07127805  0.50441209     0.09300
C189        C  0.17279300  0.10679185  0.56974810    -0.54200
C190        C  0.22083412  0.12756111  0.56403607     0.09900
H191        H  0.14234909  0.15604170  0.49691603     0.14400
H192        H  0.27471857  0.14286422  0.51219355     0.00200
H193        H  0.12761957  0.01672025  0.50571536     0.14700
H194        H  0.15764180  0.10504153  0.60026355     0.14500
O195        O  0.06569285  0.02195552  0.54975418    -0.82000
C196        C  0.45424113  0.04613136  0.66684680     0.97400
O197        O  0.47739229  0.07940201  0.63909316    -0.71100
O198        O  0.05625479  0.08519869  0.65341590    -0.74700
Al199      Al  0.02393507  0.08181553  0.60101381     1.49000
C200        C  0.08096618  0.06426214  0.66188300     0.92600
O201        O  0.50918514  0.45811164  0.65681224    -0.80900
O202        O  0.43360595  0.44896545  0.54950827    -0.74500
Al203      Al  0.03630809  0.48950311  0.59943631     1.90100
O204        O  0.43363119  0.42823012  0.63513120    -0.73500
O205        O  0.42008190  0.02298461  0.56883300    -0.73400
O206        O  0.43163484  0.00240927  0.65530893    -0.79000
O207        O  0.49148305  0.08317503  0.55018467    -0.77200
O208        O  0.49866300  0.01695778  0.59933205    -1.13400
O209        O  0.07881768  0.09507899  0.56708725    -0.72600
C210        C  0.09025767  0.06810085  0.54626840     0.98100
C211        C  0.46409677  0.43415416  0.66429824     0.94500
Al212      Al  0.43383001  0.47839070  0.60177038     1.55600
O213        O  0.08577992  0.03806839  0.63500886    -0.77200
C214        C  0.44566513  0.06081098  0.54643411     0.98700
C215        C  0.45560733  0.42419077  0.54742492     0.93600
O216        O  0.49326858  0.43457545  0.57004544    -0.82500
N217        N  0.22258921  0.00828425  0.47214002    -0.03600
C218        C  0.21966239  0.03181743  0.50733725    -0.01100
C219        C  0.19582819  0.99559061  0.53792291    -0.23900
C220        C  0.17366077  0.45194828  0.51626531    -0.24100
C221        C  0.18519079  0.46133364  0.47390688    -0.01200
H222        H  0.18398727  0.00118187  0.56827151     0.12600
H223        H  0.14428589  0.41970284  0.52952778     0.12700
N224        N  0.26959524  0.01414040  0.46258413    -0.03600
C225        C  0.30634992  0.06132129  0.45920146    -0.01100
C226        C  0.31663590  0.07095249  0.41663670    -0.23900
C227        C  0.29515916  0.02660291  0.39644782    -0.24100
C228        C  0.27264244  0.48953806  0.42698883    -0.01200
H229        H  0.34403383  0.10427898  0.40284272     0.12600
H230        H  0.30471813  0.51854591  0.36437025     0.12700
N231        N  0.49645554  0.23816638  0.46098169    -0.03600
C232        C  0.45030920  0.20023475  0.45568016    -0.01100
C233        C  0.44397902  0.19099654  0.41262436    -0.23900
C234        C  0.99115256  0.21659058  0.39236273    -0.24100
C235        C  0.02460985  0.23745002  0.42558366    -0.01200
H236        H  0.41443284  0.16058379  0.39735757     0.12600
H237        H  0.99972203  0.20762479  0.36189970     0.12700
N238        N  0.99876865  0.28289035  0.46957235    -0.03600
C239        C  0.04441790  0.32055654  0.47601175    -0.01100
C240        C  0.04962919  0.32862447  0.51926287    -0.23900
C241        C  0.50536164  0.30267852  0.53979990    -0.24100
C242        C  0.47208164  0.28358420  0.50630802    -0.01200
H243        H  0.07950221  0.35733761  0.53584124     0.12600
H244        H  0.49709566  0.31097473  0.57067049     0.12700
N245        N  0.27000759  0.28507631  0.46992406    -0.03600
C246        C  0.29828438  0.28881585  0.50532751    -0.01100
C247        C  0.28547084  0.31245253  0.53532848    -0.23900
C248        C  0.26469275  0.33687916  0.51316247    -0.24100
C249        C  0.26174626  0.32454155  0.47099013    -0.01200
H250        H  0.30335315  0.32427375  0.56600060     0.12600
H251        H  0.26452816  0.36915444  0.52466781     0.12700
N252        N  0.22812306  0.23787923  0.46229457    -0.03600
C253        C  0.23592354  0.19822284  0.46194452    -0.01100
C254        C  0.23333336  0.18524417  0.42001823    -0.23900
C255        C  0.21243647  0.20917040  0.39735343    -0.24100
C256        C  0.19969354  0.23328479  0.42693683    -0.01200
H257        H  0.23328434  0.15261494  0.40914187     0.12600
H258        H  0.19436927  0.19665856  0.36684874     0.12700
C259        C  0.07110304  0.43252801  0.40369304     0.86300
C260        C  0.04169890  0.38632426  0.43056134    -0.53900
C261        C  0.06663077  0.36236500  0.44408177     0.09200
C262        C  0.11836633  0.38510192  0.42410048     0.20200
C263        C  0.11935117  0.46387889  0.42811810    -0.54600
C264        C  0.14451124  0.43947795  0.44038651     0.09300
C265        C  0.08560451  0.41503837  0.36645511    -0.54200
C266        C  0.10837164  0.38916278  0.37461671     0.09900
H267        H  0.50444733  0.37513848  0.43942077     0.14400
H268        H  0.13811714  0.36450497  0.43224634     0.00200
H269        H  0.13127684  0.00119407  0.43625474     0.14700
H270        H  0.07650418  0.42155838  0.33431705     0.14500
C271        C  0.06787761  0.14859059  0.40128189     0.86300
C272        C  0.11522617  0.16456751  0.42546989    -0.53900
C273        C  0.14423794  0.21448252  0.43026102     0.09200
C274        C  0.11656079  0.24270479  0.41250444     0.20200
C275        C  0.03935249  0.16680738  0.42575463    -0.54600
C276        C  0.06123611  0.21706679  0.42986650     0.09300
C277        C  0.08238308  0.17944776  0.36103180    -0.54200
C278        C  0.10961618  0.22763968  0.36613014     0.09900
H279        H  0.12936628  0.13902183  0.42825972     0.14400
H280        H  0.13746879  0.28291882  0.41710066     0.00200
H281        H  0.49858986  0.14336807  0.42785823     0.14700
H282        H  0.07330178  0.16371874  0.33017126     0.14500
C283        C  0.35304412  0.43443703  0.40261675     0.86300
C284        C  0.33969413  0.46894560  0.42536572    -0.53900
C285        C  0.29056230  0.45185886  0.43120937     0.09200
C286        C  0.26004140  0.39714312  0.41750995     0.20200
C287        C  0.33304261  0.38717047  0.42879892    -0.54600
C288        C  0.28456644  0.36744355  0.43923315     0.09300
C289        C  0.32116144  0.41888410  0.36369412    -0.54200
C290        C  0.27354100  0.40039506  0.37004322     0.09900
H291        H  0.36667146  0.00772982  0.42735406     0.14400
H292        H  0.22035181  0.38086910  0.42325074     0.00200
H293        H  0.35451952  0.36922218  0.43524108     0.14700
H294        H  0.33561216  0.42252154  0.33237396     0.14500
O295        O  0.49622305  0.07386569  0.38110664    -0.82000
C296        C  0.02891698  0.46286252  0.26533209     0.97400
O297        O  0.06238638  0.98760452  0.29411544    -0.71100
O298        O  0.06354240  0.06602966  0.27902809    -0.74700
Al299      Al  0.06037484  0.03333619  0.33073417     1.49000
C300        C  0.04116761  0.08890069  0.26920274     0.92600
O301        O  0.43560259  0.01419412  0.27696634    -0.80900
O302        O  0.42842727  0.43778948  0.38303728    -0.74500
Al303      Al  0.46569233  0.04141920  0.32974207     1.90100
O304        O  0.40979884  0.43900806  0.29650358    -0.73500
O305        O  0.00509972  0.42855327  0.36286198    -0.73400
O306        O  0.48591614  0.43960426  0.27767244    -0.79000
O307        O  0.06311377  0.00133063  0.38211075    -0.77200
O308        O  0.49519050  0.00565834  0.33150289    -1.13400
O309        O  0.07047348  0.08592377  0.36498955    -0.72600
C310        C  0.04342893  0.09744763  0.38544098     0.98100
C311        C  0.41489455  0.47063070  0.26838929     0.94500
Al312      Al  0.46041323  0.44108754  0.33120326     1.55600
O313        O  0.01300856  0.09222577  0.29501205    -0.77200
C314        C  0.04305479  0.45578519  0.38458150     0.98700
C315        C  0.40353928  0.45954722  0.38530671     0.93600
O316        O  0.41342832  0.99687288  0.36339148    -0.82500
C317        C  0.40504338  0.32377245  0.73543364     0.86300
C318        C  0.44991772  0.34335173  0.76440115    -0.53900
C319        C  0.46999407  0.39222407  0.77405883     0.09200
C320        C  0.44308037  0.41741570  0.74935679     0.20200
C321        C  0.36950627  0.33783678  0.75467718    -0.54600
C322        C  0.38672567  0.38687503  0.76049800     0.09300
C323        C  0.42417950  0.35563789  0.69655048    -0.54200
C324        C  0.44531473  0.40385493  0.70253989     0.09900
H325        H  0.46793606  0.32202192  0.77071167     0.14400
H326        H  0.45962588  0.45728152  0.75455243     0.00200
H327        H  0.33083814  0.31153345  0.75611952     0.14700
H328        H  0.42397519  0.34062533  0.66623796     0.14500
C329        C  0.19006879  0.10755363  0.73408245     0.86300
C330        C  0.17311257  0.13242210  0.76501087    -0.53900
C331        C  0.12275977  0.11186111  0.76882878     0.09200
C332        C  0.09621491  0.06013307  0.74572602     0.20200
C333        C  0.17287534  0.05671949  0.75143274    -0.54600
C334        C  0.12344463  0.02909495  0.75747958     0.09300
C335        C  0.15928238  0.10040386  0.69443419    -0.54200
C336        C  0.11117046  0.07599574  0.69961997     0.09900
H337        H  0.19811621  0.17073670  0.77039016     0.14400
H338        H  0.05604940  0.03934580  0.75010325     0.00200
H339        H  0.19742680  0.04136215  0.75234813     0.14700
H340        H  0.17482909  0.11498202  0.66399323     0.14500
C341        C  0.40258866  0.10187533  0.73660317     0.86300
C342        C  0.37257115  0.05516337  0.76343110    -0.53900
C343        C  0.39697846  0.02998210  0.77542054     0.09200
C344        C  0.44955385  0.05415117  0.75647233     0.20200
C345        C  0.45045080  0.13258982  0.76106080    -0.54600
C346        C  0.47474250  0.10785003  0.77406841     0.09300
C347        C  0.41731620  0.08492609  0.69905055    -0.54200
C348        C  0.44126015  0.06026444  0.70694460     0.09900
H349        H  0.33498452  0.04300130  0.77118713     0.14400
H350        H  0.46991558  0.03414506  0.76442316     0.00200
H351        H  0.46402712  0.17096732  0.76684937     0.14700
H352        H  0.40860544  0.09188176  0.66684522     0.14500
O353        O  0.33634002  0.24812706  0.71558006    -0.82000
C354        C  0.36576477  0.13928776  0.59775086     0.97400
O355        O  0.39752658  0.16124507  0.62671037    -0.71100
O356        O  0.40086589  0.24085343  0.61327276    -0.74700
Al357      Al  0.39712036  0.20719010  0.66435427     1.49000
C358        C  0.37876389  0.26416369  0.60411740     0.92600
O359        O  0.27375542  0.19093009  0.61023210    -0.80900
O360        O  0.26629377  0.11338853  0.71530173    -0.74500
Al361      Al  0.30502127  0.21760510  0.66398633     1.90100
O362        O  0.24519706  0.11508596  0.63089823    -0.73500
O363        O  0.33991961  0.10210007  0.69441608    -0.73400
O364        O  0.32157867  0.11586724  0.60782654    -0.79000
O365        O  0.39840086  0.17349408  0.71525360    -0.77200
O366        O  0.33292393  0.18052604  0.66497081    -1.13400
O367        O  0.40942246  0.26067515  0.69943129    -0.72600
C368        C  0.38232578  0.27244133  0.71950018     0.98100
C369        C  0.25066851  0.14590326  0.60223262     0.94500
Al370      Al  0.29626071  0.11607828  0.66274437     1.55600
O371        O  0.35125506  0.26791124  0.63023857    -0.77200
C372        C  0.37680413  0.12739775  0.71769598     0.98700
C373        C  0.24122821  0.13496851  0.71850090     0.93600
O374        O  0.25202663  0.17413392  0.69769429    -0.82500
N375        N  0.32748709  0.45098701  0.80387884    -0.03600
C376        C  0.37518035  0.98755161  0.80720256    -0.01100
C377        C  0.38314073  0.99604495  0.85019330    -0.23900
C378        C  0.33846748  0.97082902  0.86959124    -0.24100
C379        C  0.30161684  0.45286792  0.83763692    -0.01200
H380        H  0.41499156  0.02396575  0.86537212     0.12600
H381        H  0.33156429  0.97958265  0.90081550     0.12700
N382        N  0.32379402  0.40470803  0.79404468    -0.03600
C383        C  0.27717355  0.36625188  0.79025063    -0.01100
C384        C  0.26802379  0.35797096  0.74729660    -0.23900
C385        C  0.31239721  0.38262512  0.72711145    -0.24100
C386        C  0.34812815  0.40396853  0.75860512    -0.01200
H387        H  0.23511300  0.33076432  0.73252460     0.12600
H388        H  0.31841874  0.37383448  0.69559758     0.12700
N389        N  0.09813035  0.44993835  0.79413277    -0.03600
C390        C  0.10238508  0.47875585  0.75869208    -0.01100
C391        C  0.12482682  0.95797242  0.72669704    -0.23900
C392        C  0.15029125  0.93872411  0.74944047    -0.24100
C393        C  0.13732661  0.44170108  0.79291770    -0.01200
H394        H  0.13536207  0.97396197  0.69517834     0.12600
H395        H  0.18207140  0.93795240  0.73762285     0.12700
N396        N  0.05118134  0.40760018  0.80199473    -0.03600
C397        C  0.01177784  0.41544088  0.80277789    -0.01100
C398        C  0.50386208  0.41462303  0.84674749    -0.23900
C399        C  0.52885234  0.39386198  0.86797933    -0.24100
C400        C  0.04630910  0.37850191  0.83727897    -0.01200
H401        H  0.47239216  0.41526305  0.85944616     0.12600
H402        H  0.51830790  0.37653844  0.89904204     0.12700
N403        N  0.09823129  0.17562255  0.79654517    -0.03600
C404        C  0.10412612  0.14969615  0.76373862    -0.01100
C405        C  0.12757147  0.18368456  0.73111136    -0.23900
C406        C  0.15397789  0.22768479  0.75072851    -0.24100
C407        C  0.13983660  0.22036423  0.79254478    -0.01200
H408        H  0.13909324  0.17609420  0.70152413     0.12600
H409        H  0.18794441  0.25582994  0.73861403     0.12700
N410        N  0.05276855  0.17828958  0.79691174    -0.03600
C411        C  0.05648170  0.22491882  0.79719634    -0.01100
C412        C  0.52998036  0.16849403  0.86930693    -0.23900
C413        C  0.50412662  0.12353894  0.85021192    -0.24100
C414        C  0.51514661  0.13017782  0.80754820    -0.01200
H415        H  0.51981738  0.17607176  0.89964262     0.12600
H416        H  0.47303282  0.09377508  0.86451648     0.12700
C417        C  0.25259486  0.25209757  0.86156836     0.86300
C418        C  0.20404305  0.21977516  0.83906180    -0.53900
C419        C  0.17842433  0.24291537  0.82644140     0.09200
C420        C  0.20314169  0.29717533  0.84154842     0.20200
C421        C  0.28129424  0.29818375  0.83339369    -0.54600
C422        C  0.25586217  0.32262113  0.82164186     0.09300
C423        C  0.23952842  0.27087117  0.89876720    -0.54200
C424        C  0.21253168  0.29235755  0.89058635     0.09900
H425        H  0.19049067  0.18105398  0.83509266     0.14400
H426        H  0.18141276  0.31588328  0.83381214     0.00200
H427        H  0.31883073  0.31088579  0.82512467     0.14700
H428        H  0.24873291  0.26460962  0.93089193     0.14500
C429        C  0.24861024  0.03297921  0.86060489     0.86300
C430        C  0.28416297  0.01861153  0.84095161    -0.53900
C431        C  0.26340923  0.47004548  0.83202912     0.09200
C432        C  0.20872561  0.43956322  0.84593021     0.20200
C433        C  0.20356820  0.01347458  0.83145403    -0.54600
C434        C  0.17964500  0.46457945  0.82454886     0.09300
C435        C  0.23115935  0.50043655  0.89994122    -0.54200
C436        C  0.21113515  0.45268427  0.89330913     0.09900
H437        H  0.32291744  0.04480675  0.84008273     0.14400
H438        H  0.19221947  0.39976076  0.83996811     0.00200
H439        H  0.18629563  0.03528781  0.82381603     0.14700
H440        H  0.23063253  0.01498603  0.93017277     0.14500
C441        C  0.46433782  0.24699360  0.86352825     0.86300
C442        C  0.48076714  0.29552927  0.84088134    -0.53900
C443        C  0.02837546  0.32286179  0.83432931     0.09200
C444        C  0.05856861  0.29686395  0.84939980     0.20200
C445        C  0.48125433  0.21843470  0.83709802    -0.54600
C446        C  0.03404636  0.24320445  0.82975733     0.09300
C447        C  0.99736844  0.25841878  0.90335773    -0.54200
C448        C  0.04498570  0.28614906  0.89676117     0.09900
H449        H  0.45597502  0.31059648  0.83960411     0.14400
H450        H  0.09836429  0.31929924  0.84368230     0.00200
H451        H  0.45677648  0.17955041  0.83363305     0.14700
H452        H  0.98264735  0.24916498  0.93469857     0.14500
O453        O  0.32145618  0.24473698  0.88494850    -0.82000
C454        C  0.28609349  0.09157126  0.99610432     0.97400
O455        O  0.25454260  0.08863451  0.96903214    -0.71100
O456        O  0.25721792  0.16625399  0.99024214    -0.74700
Al457      Al  0.25747014  0.14039427  0.93583734     1.49000
C458        C  0.28048251  0.21058731  0.99973520     0.92600
O459        O  0.38143356  0.23957842  0.98936903    -0.80900
O460        O  0.38900153  0.17701619  0.88315237    -0.74500
Al461      Al  0.35109974  0.23957920  0.93663801     1.90100
O462        O  0.40807128  0.19029756  0.97018900    -0.73500
O463        O  0.31232361  0.09328544  0.90054198    -0.73400
O464        O  0.33057275  0.11372886  0.98729641    -0.79000
O465        O  0.25222347  0.10817998  0.88317965    -0.77200
O466        O  0.32196511  0.17504409  0.93436490    -1.13400
O467        O  0.24814757  0.18696882  0.90316151    -0.72600
C468        C  0.27575695  0.22442657  0.88086147     0.98100
C469        C  0.40468141  0.21714276  0.99766081     0.94500
Al470      Al  0.35728892  0.14530684  0.93472859     1.55600
O471        O  0.30485599  0.24202971  0.97148410    -0.77200
C472        C  0.27404700  0.08353870  0.87880217     0.98700
C473        C  0.41392639  0.22309738  0.88060531     0.93600
O474        O  0.40419488  0.24994680  0.90329885    -0.82500
C475        C  0.23839594  0.77621931  0.06733254     0.86300
C476        C  0.20420528  0.73199351  0.09360176    -0.53900
C477        C  0.21825409  0.69719640  0.10063766     0.09200
C478        C  0.27229293  0.71670899  0.08580860     0.20200
C479        C  0.28576124  0.80140899  0.09312573    -0.54600
C480        C  0.30413562  0.77050790  0.10512847     0.09300
C481        C  0.25226712  0.75812178  0.02958396    -0.54200
C482        C  0.26861652  0.72674279  0.03739151     0.09900
H483        H  0.16649861  0.72397757  0.09636524     0.14400
H484        H  0.28687075  0.69125769  0.09343083     0.00200
H485        H  0.30254823  0.83957291  0.10150609     0.14700
H486        H  0.24843087  0.76925779  0.99735321     0.14500
C487        C  0.01597905  0.76357418  0.06774429     0.86300
C488        C  0.00321085  0.79904003  0.08933923    -0.53900
C489        C  0.45277250  0.78121800  0.09664155     0.09200
C490        C  0.42207163  0.72637946  0.08329676     0.20200
C491        C  0.99589655  0.71749508  0.09592961    -0.54600
C492        C  0.44687225  0.69714879  0.10539095     0.09300
C493        C  0.48270584  0.74708246  0.02932651    -0.54200
C494        C  0.43488655  0.72861858  0.03573815     0.09900
H495        H  0.03022490  0.83757255  0.09150354     0.14400
H496        H  0.38237820  0.71027050  0.08930126     0.00200
H497        H  0.01777756  0.70060861  0.10498076     0.14700
H498        H  0.49706063  0.74989191  0.99828111     0.14500
C499        C  0.23127765  0.98041464  0.06657951     0.86300
C500        C  0.27990204  0.99473329  0.08763133    -0.53900
C501        C  0.30732557  0.54481765  0.09452564     0.09200
C502        C  0.27833941  0.57352147  0.08066978     0.20200
C503        C  0.20544890  0.99652726  0.09642194    -0.54600
C504        C  0.22425036  0.54629676  0.10110542     0.09300
C505        C  0.24058538  0.51272956  0.02776417    -0.54200
C506        C  0.26735715  0.56041757  0.03366201     0.09900
H507        H  0.29342442  0.96859265  0.08987068     0.14400
H508        H  0.29929422  0.61351971  0.08633583     0.00200
H509        H  0.16717721  0.97148771  0.10154870     0.14700
H510        H  0.22973665  0.49832838  0.99637535     0.14500
O511        O  0.23216850  0.84474900  0.04140175    -0.82000
C512        C  0.07370071  0.80235567  0.93507994     0.97400
O513        O  0.07262451  0.77140114  0.96189014    -0.71100
O514        O  0.15056561  0.77714432  0.93860453    -0.73500
Al515      Al  0.12554759  0.77668312  0.99375701     1.49000
C516        C  0.19401249  0.80236517  0.92706445     0.92600
O517        O  0.22082575  0.90051976  0.93861061    -0.80900
O518        O  0.16004829  0.90716758  0.04568587    -0.74500
Al519      Al  0.22332018  0.87181616  0.99028190     1.90100
O520        O  0.17128253  0.92642551  0.95837572    -0.73500
O521        O  0.07623209  0.82898631  0.02886929    -0.73400
O522        O  0.09532550  0.84725093  0.94284528    -0.79000
O523        O  0.09328567  0.77026860  0.04664290    -0.77200
O524        O  0.15867650  0.84116289  0.99436080    -1.13400
O525        O  0.17357405  0.77070434  0.02600954    -0.72600
C526        C  0.21173545  0.79943614  0.04703199     0.98100
C527        C  0.19774134  0.92282764  0.93060812     0.94500
Al528      Al  0.12759111  0.87508829  0.99453554     1.55600
O529        O  0.22621735  0.82655524  0.95471455    -0.77200
C530        C  0.06678755  0.79022539  0.05000400     0.98700
C531        C  0.20615145  0.93126699  0.04806816     0.93600
O532        O  0.23254873  0.92309172  0.02365930    -0.82500
N533        N  0.15532844  0.61303006  0.12967086    -0.03600
C534        C  0.10854253  0.60828561  0.12903682    -0.01100
C535        C  0.09679754  0.61494120  0.08762263    -0.23900
C536        C  0.14001913  0.63757326  0.06618312    -0.24100
C537        C  0.17667111  0.64507458  0.09600214    -0.01200
H538        H  0.06447534  0.61700164  0.07746113     0.12600
H539        H  0.14495861  0.65881659  0.03713942     0.12700
N540        N  0.15915035  0.56811642  0.12926538    -0.03600
C541        C  0.18560043  0.56383527  0.09611069    -0.01100
C542        C  0.15554140  0.04252371  0.06436262    -0.23900
C543        C  0.11209121  0.01324031  0.08435323    -0.24100
C544        C  0.11500776  0.52531665  0.12599640    -0.01200
H545        H  0.16390857  0.03269886  0.03423383     0.12600
H546        H  0.08527698  0.97880795  0.07175793     0.12700
N547        N  0.43127015  0.84065200  0.13042855    -0.03600
C548        C  0.46880040  0.88804361  0.12818772    -0.01100
C549        C  0.98227554  0.90205456  0.08376916    -0.23900
C550        C  0.96054059  0.85846209  0.06230132    -0.24100
C551        C  0.43501477  0.81893313  0.09463916    -0.01200
H552        H  0.00933463  0.93630172  0.07057906     0.12600
H553        H  0.97154570  0.85407709  0.03113587     0.12700
N554        N  0.38367871  0.83421418  0.13916032    -0.03600
C555        C  0.34462466  0.78725609  0.13901728    -0.01100
C556        C  0.32918839  0.77532492  0.18043055    -0.23900
C557        C  0.35202086  0.81823334  0.20313395    -0.24100
C558        C  0.37900795  0.85629614  0.17445036    -0.01200
H559        H  0.29620925  0.74301308  0.19054765     0.12600
H560        H  0.33840221  0.82262346  0.23301982     0.12700
C561        C  0.30418422  0.91785805  0.19801211     0.86300
C562        C  0.32503387  0.96444624  0.17035140    -0.53900
C563        C  0.37387015  0.98361013  0.16088118     0.09200
C564        C  0.39703650  0.95316898  0.18369252     0.20200
C565        C  0.31632620  0.88228704  0.17586812    -0.54600
C566        C  0.36497515  0.89738332  0.17099211     0.09300
C567        C  0.33598500  0.93369146  0.23710177    -0.54200
C568        C  0.38355946  0.95271715  0.23075575     0.09900
H569        H  0.30363463  0.98200324  0.16176139     0.14400
H570        H  0.43671726  0.96848699  0.17834296     0.00200
H571        H  0.28860723  0.84430232  0.17177748     0.14700
H572        H  0.32185065  0.93268529  0.26826012     0.14500
C573        C  0.09331955  0.69955980  0.19850514     0.86300
C574        C  0.11820009  0.68001469  0.17020680    -0.53900
C575        C  0.09062107  0.63116531  0.16107256     0.09200
C576        C  0.03904118  0.60635721  0.18363727     0.20200
C577        C  0.04392019  0.68640603  0.17805504    -0.54600
C578        C  0.01285800  0.63744510  0.17198542     0.09300
C579        C  0.08194151  0.66706710  0.23740650    -0.54200
C580        C  0.05387293  0.61924352  0.23062871     0.09900
H581        H  0.15589510  0.70203453  0.16182657     0.14400
H582        H  0.01601772  0.56654099  0.17785689     0.00200
H583        H  0.03135805  0.71327664  0.17578657     0.14700
H584        H  0.09774629  0.68074764  0.26812853     0.14500
C585        C  0.08579665  0.91237121  0.19667119     0.86300
C586        C  0.03908267  0.88417482  0.16916680    -0.53900
C587        C  0.01540073  0.91037124  0.15770253     0.09200
C588        C  0.04169460  0.96292934  0.17718857     0.20200
C589        C  0.11844891  0.96062913  0.17325493    -0.54600
C590        C  0.09594590  0.98718744  0.16092510     0.09300
C591        C  0.06925479  0.92734905  0.23426132    -0.54200
C592        C  0.04638568  0.95299786  0.22625933     0.09900
H593        H  0.02551697  0.84633561  0.16106481     0.14400
H594        H  0.02316746  0.98488742  0.16971550     0.00200
H595        H  0.15654290  0.97279819  0.16769968     0.14700
H596        H  0.07466197  0.91726821  0.26640633     0.14500
O597        O  0.23040411  0.84842827  0.21891076    -0.82000
C598        C  0.11764093  0.87097459  0.33562891     0.97400
O599        O  0.13920566  0.90322730  0.30691719    -0.71100
O600        O  0.21864395  0.90833524  0.32383822    -0.74700
Al601      Al  0.18733988  0.90556204  0.27127927     1.49000
C602        C  0.24295978  0.88723616  0.33269439     0.92600
O603        O  0.17304622  0.78171855  0.32255172    -0.80900
O604        O  0.09986908  0.77648292  0.21617658    -0.74500
Al605      Al  0.20053745  0.81514062  0.27013220     1.90100
O606        O  0.09795874  0.75190012  0.29917796    -0.73500
O607        O  0.08404683  0.84771658  0.23805083    -0.73400
O608        O  0.09512159  0.82662427  0.32508980    -0.79000
O609        O  0.15586991  0.90717432  0.21945099    -0.77200
O610        O  0.16225570  0.84147313  0.26919216    -1.13400
O611        O  0.24248905  0.92075659  0.23755523    -0.72600
C612        C  0.25369847  0.89463751  0.21537933     0.98100
C613        C  0.12774404  0.75663488  0.32832739     0.94500
Al614      Al  0.09838908  0.80356302  0.26920240     1.55600
O615        O  0.24883967  0.86189394  0.30536615    -0.77200
C616        C  0.11001932  0.88533058  0.21556779     0.98700
C617        C  0.12108303  0.75079309  0.21408695     0.93600
O618        O  0.15930469  0.76131614  0.23585516    -0.82500
N619        N  0.43150220  0.61462205  0.13678227    -0.03600
C620        C  0.45876381  0.61870679  0.17280315    -0.01100
C621        C  0.94523170  0.64543693  0.20278045    -0.23900
C622        C  0.42509190  0.66675897  0.17903032    -0.24100
C623        C  0.42330125  0.65420526  0.13707257    -0.01200
H624        H  0.96278629  0.65825689  0.23342349     0.12600
H625        H  0.92430221  0.70164595  0.18943930     0.12700
N626        N  0.39008700  0.56722587  0.12850862    -0.03600
C627        C  0.39822689  0.52752881  0.12825139    -0.01100
C628        C  0.39898148  0.01529370  0.08820107    -0.23900
C629        C  0.37652594  0.53986243  0.06318530    -0.24100
C630        C  0.36283073  0.56349799  0.09250422    -0.01200
H631        H  0.40019642  0.98317252  0.07768295     0.12600
H632        H  0.36216843  0.02667468  0.03327748     0.12700
C633        C  0.42987065  0.87464558  0.52915537     0.86300
C634        C  0.45756727  0.85662789  0.50277390    -0.53900
C635        C  0.43580751  0.80621713  0.49842520     0.09200
C636        C  0.38217927  0.78053332  0.51781455     0.20200
C637        C  0.38127903  0.85822230  0.50730375    -0.54600
C638        C  0.35296847  0.80844830  0.50226184     0.09300
C639        C  0.41800560  0.84379949  0.56930107    -0.54200
C640        C  0.39347038  0.79565028  0.56410980     0.09900
H641        H  0.49656013  0.88056937  0.50012957     0.14400
H642        H  0.36145011  0.74028610  0.51337455     0.00200
H643        H  0.36650061  0.88326176  0.50511764     0.14700
H644        H  0.43002727  0.85910649  0.60004035     0.14500
C645        C  0.42046002  0.58586993  0.52704341     0.86300
C646        C  0.37286242  0.55595710  0.50147219    -0.53900
C647        C  0.34883010  0.58142551  0.48905442     0.09200
C648        C  0.37439345  0.63449550  0.50670908     0.20200
C649        C  0.45135698  0.63293247  0.50123305    -0.54600
C650        C  0.42748863  0.65817213  0.48817876     0.09300
C651        C  0.40536069  0.60267855  0.56436421    -0.54200
C652        C  0.38097743  0.62689313  0.55614385     0.09900
H653        H  0.35919135  0.51769446  0.49505678     0.14400
H654        H  0.35491856  0.65538664  0.49866250     0.00200
H655        H  0.48935826  0.64550327  0.49508671     0.14700
H656        H  0.41255770  0.59440086  0.59662544     0.14500
C657        C  0.14156845  0.59072167  0.52884489     0.86300
C658        C  0.16265836  0.63662880  0.50076800    -0.53900
C659        C  0.21145835  0.65550153  0.49145387     0.09200
C660        C  0.23504396  0.62705280  0.51572918     0.20200
C661        C  0.15494694  0.55489702  0.50857843    -0.54600
C662        C  0.20390094  0.57121825  0.50364077     0.09300
C663        C  0.17291628  0.60843402  0.56804607    -0.54200
C664        C  0.22094692  0.62864704  0.56227926     0.09900
H665        H  0.14231352  0.65565202  0.49426147     0.14400
H666        H  0.27484807  0.64287194  0.51088525     0.00200
H667        H  0.12805297  0.51647371  0.50556891     0.14700
H668        H  0.15798626  0.60887235  0.59823734     0.14500
O669        O  0.06558229  0.52177680  0.54754854    -0.82000
C670        C  0.45370864  0.54642314  0.66688443     0.97400
O671        O  0.47712548  0.57925663  0.63891004    -0.71100
O672        O  0.05634657  0.58283437  0.65233268    -0.74700
Al673      Al  0.02373990  0.58018622  0.60082870     1.49000
C674        C  0.08154730  0.56236818  0.65988800     0.92600
O675        O  0.51047210  0.95841685  0.65400856    -0.80900
O676        O  0.43440330  0.95058667  0.54752073    -0.74500
Al677      Al  0.03616007  0.99056973  0.60178767     1.90100
O678        O  0.43481573  0.92843163  0.63268624    -0.73500
O679        O  0.41953849  0.52185873  0.56911610    -0.73400
O680        O  0.43076390  0.50257250  0.65590584    -0.79000
O681        O  0.49108212  0.58147972  0.55019729    -0.77200
O682        O  0.49807264  0.51595363  0.60078932    -1.13400
O683        O  0.07842960  0.59452896  0.56593921    -0.72600
C684        C  0.09011927  0.56800717  0.54466530     0.98100
C685        C  0.46544545  0.93432225  0.66169026     0.94500
Al686      Al  0.43460033  0.97910897  0.60043732     1.55600
O687        O  0.08635758  0.53662397  0.63258609    -0.77200
C688        C  0.44523596  0.55938050  0.54641044     0.98700
C689        C  0.45638733  0.92580044  0.54489152     0.93600
O690        O  0.49449281  0.93640311  0.56689694    -0.82500
N691        N  0.22277940  0.50835790  0.47107548    -0.03600
C692        C  0.22017137  0.53200355  0.50631737    -0.01100
C693        C  0.19696220  0.49583093  0.53712741    -0.23900
C694        C  0.17212444  0.95189653  0.51678764    -0.24100
C695        C  0.18483756  0.96126336  0.47461239    -0.01200
H696        H  0.18581135  0.50139336  0.56781426     0.12600
H697        H  0.14116174  0.92096498  0.52918451     0.12700
N698        N  0.26954202  0.51367128  0.46146118    -0.03600
C699        C  0.30657191  0.56054022  0.45745972    -0.01100
C700        C  0.31636080  0.56937162  0.41470722    -0.23900
C701        C  0.29409177  0.52467049  0.39507447    -0.24100
C702        C  0.27324593  0.99075639  0.42776345    -0.01200
H703        H  0.34373012  0.60233095  0.40031358     0.12600
H704        H  0.30635315  0.02121950  0.36573193     0.12700
N705        N  0.49615538  0.73756863  0.45986639    -0.03600
C706        C  0.45026906  0.69904248  0.45483645    -0.01100
C707        C  0.44426129  0.68868164  0.41199290    -0.23900
C708        C  0.99128530  0.71459928  0.39411425    -0.24100
C709        C  0.02502274  0.73611883  0.42702423    -0.01200
H710        H  0.41519655  0.65732696  0.39729467     0.12600
H711        H  0.99963250  0.70494876  0.36386862     0.12700
N712        N  0.99951610  0.78228610  0.47112850    -0.03600
C713        C  0.04524404  0.81980735  0.47728130    -0.01100
C714        C  0.05140727  0.82696353  0.52070326    -0.23900
C715        C  0.50500840  0.80516423  0.53609707    -0.24100
C716        C  0.47148763  0.78489390  0.50288630    -0.01200
H717        H  0.08238202  0.85347768  0.53758407     0.12600
H718        H  0.49707007  0.81477189  0.56651976     0.12700
N719        N  0.26928319  0.78528647  0.46955879    -0.03600
C720        C  0.29738817  0.78918400  0.50506505    -0.01100
C721        C  0.28370172  0.81197877  0.53517505    -0.23900
C722        C  0.26200614  0.83562031  0.51317018    -0.24100
C723        C  0.26011219  0.82413416  0.47087276    -0.01200
H724        H  0.30130959  0.82381366  0.56594239     0.12600
H725        H  0.26091930  0.86734048  0.52491273     0.12700
N726        N  0.22823846  0.73778133  0.46119636    -0.03600
C727        C  0.23694602  0.69871109  0.46092961    -0.01100
C728        C  0.23602632  0.68658002  0.41898928    -0.23900
C729        C  0.21452843  0.70973453  0.39605849    -0.24100
C730        C  0.20045303  0.73299231  0.42540794    -0.01200
H731        H  0.23713116  0.65452648  0.40811494     0.12600
H732        H  0.19719511  0.69722002  0.36530389     0.12700
C733        C  0.07046739  0.93172020  0.40469320     0.86300
C734        C  0.04161672  0.88600658  0.43247851    -0.53900
C735        C  0.06689407  0.86215563  0.44573863     0.09200
C736        C  0.11818701  0.88467362  0.42498736     0.20200
C737        C  0.11921488  0.96347595  0.42835785    -0.54600
C738        C  0.14461721  0.93934295  0.44061652     0.09300
C739        C  0.08401975  0.91324575  0.36748118    -0.54200
C740        C  0.10709374  0.88768820  0.37561509     0.09900
H741        H  0.50298599  0.87260914  0.43380439     0.14400
H742        H  0.13814642  0.86425879  0.43301292     0.00200
H743        H  0.13145924  0.50157522  0.43608357     0.14700
H744        H  0.07428847  0.91906684  0.33532412     0.14500
C745        C  0.06762044  0.64750476  0.40033598     0.86300
C746        C  0.11615905  0.66346844  0.42255020    -0.53900
C747        C  0.14485155  0.71324013  0.42806072     0.09200
C748        C  0.11658487  0.74149235  0.41220882     0.20200
C749        C  0.04014387  0.66540191  0.42687506    -0.54600
C750        C  0.06190278  0.71577659  0.43105794     0.09300
C751        C  0.08006169  0.67866591  0.36036522    -0.54200
C752        C  0.10784080  0.72672590  0.36575763     0.09900
H753        H  0.13060052  0.63810377  0.42456284     0.14400
H754        H  0.13776684  0.78167821  0.41689442     0.00200
H755        H  0.49953855  0.64223413  0.42836168     0.14700
H756        H  0.06945317  0.66331728  0.32933944     0.14500
C757        C  0.35269594  0.93393670  0.40310825     0.86300
C758        C  0.33977090  0.96916309  0.42539430    -0.53900
C759        C  0.29076252  0.95262609  0.43131547     0.09200
C760        C  0.25976054  0.89772096  0.41808977     0.20200
C761        C  0.33232611  0.88703893  0.42973524    -0.54600
C762        C  0.28385247  0.86784100  0.44011057     0.09300
C763        C  0.32060570  0.91787122  0.36429358    -0.54200
C764        C  0.27306141  0.89985603  0.37072973     0.09900
H765        H  0.36623849  0.50763649  0.42701896     0.14400
H766        H  0.22011424  0.88184812  0.42379308     0.00200
H767        H  0.35325343  0.86847367  0.43581471     0.14700
H768        H  0.33481775  0.92063211  0.33299326     0.14500
O769        O  0.49754194  0.57384107  0.38132126    -0.82000
C770        C  0.03060449  0.96468084  0.26555528     0.97400
O771        O  0.06107992  0.48637861  0.29333786    -0.71100
O772        O  0.06176284  0.56439267  0.27708086    -0.74700
Al773      Al  0.05947462  0.53253389  0.32912498     1.49000
C774        C  0.03964794  0.58760709  0.26763241     0.92600
O775        O  0.43733548  0.51525036  0.27690594    -0.80900
O776        O  0.42791695  0.93666090  0.38262848    -0.74500
Al777      Al  0.46713549  0.54201293  0.32980237     1.90100
O778        O  0.40893243  0.93821422  0.29678856    -0.73500
O779        O  0.00527568  0.92877421  0.36289030    -0.73400
O780        O  0.48568364  0.94027817  0.27645854    -0.79000
O781        O  0.06333438  0.50161506  0.38062856    -0.77200
O782        O  0.49605681  0.50573846  0.33192706    -1.13400
O783        O  0.06985912  0.58548337  0.36281263    -0.72600
C784        C  0.04300874  0.59663381  0.38396057     0.98100
C785        C  0.41367951  0.96949896  0.26859927     0.94500
Al786      Al  0.46009367  0.94085114  0.33036449     1.55600
O787        O  0.01147874  0.59069968  0.29355129    -0.77200
C788        C  0.04276400  0.95541761  0.38536984     0.98700
C789        C  0.40314174  0.95859208  0.38547451     0.93600
O790        O  0.41403100  0.49779536  0.36306966    -0.82500
C791        C  0.40835032  0.82420507  0.73347550     0.86300
C792        C  0.45488539  0.84388737  0.76047452    -0.53900
C793        C  0.47512582  0.89275681  0.77025985     0.09200
C794        C  0.44718286  0.91789610  0.74719614     0.20200
C795        C  0.37440287  0.83825576  0.75560654    -0.54600
C796        C  0.39146245  0.88756020  0.76050227     0.09300
C797        C  0.42491777  0.85592944  0.69422605    -0.54200
C798        C  0.44696843  0.90414382  0.70007940     0.09900
H799        H  0.47227686  0.82199522  0.76738355     0.14400
H800        H  0.46411527  0.95778939  0.75256627     0.00200
H801        H  0.33605646  0.81160139  0.75860321     0.14700
H802        H  0.42210855  0.84071011  0.66351746     0.14500
C803        C  0.19038063  0.61057821  0.73244046     0.86300
C804        C  0.17308044  0.64039275  0.75665228    -0.53900
C805        C  0.12313892  0.61937937  0.76122877     0.09200
C806        C  0.09634426  0.56499160  0.74364218     0.20200
C807        C  0.17290100  0.56271749  0.75653893    -0.54600
C808        C  0.12284224  0.53500486  0.76125334     0.09300
C809        C  0.15983032  0.59665618  0.69222640    -0.54200
C810        C  0.11173607  0.57420043  0.69732892     0.09900
H811        H  0.19744945  0.67946541  0.75932739     0.14400
H812        H  0.05615952  0.54551618  0.74804473     0.00200
H813        H  0.19738132  0.54742286  0.75980607     0.14700
H814        H  0.17534552  0.60533888  0.66136856     0.14500
C815        C  0.40257565  0.60327433  0.73561847     0.86300
C816        C  0.37157566  0.55635984  0.76175786    -0.53900
C817        C  0.39519426  0.53063871  0.77428960     0.09200
C818        C  0.44817152  0.55438520  0.75601653     0.20200
C819        C  0.45018950  0.63336492  0.76096648    -0.54600
C820        C  0.47410709  0.60801476  0.77373351     0.09300
C821        C  0.41789968  0.58665139  0.69828205    -0.54200
C822        C  0.44095667  0.56122410  0.70653650     0.09900
H823        H  0.33391460  0.54458272  0.76881348     0.14400
H824        H  0.46792573  0.53384468  0.76414715     0.00200
H825        H  0.46389164  0.67166871  0.76737521     0.14700
H826        H  0.41013120  0.59424677  0.66595940     0.14500
O827        O  0.33832044  0.74950648  0.71313724    -0.82000
C828        C  0.36517550  0.63853642  0.59580090     0.97400
O829        O  0.39730565  0.66099565  0.62427653    -0.71100
O830        O  0.40128507  0.74073138  0.61017017    -0.74700
Al831      Al  0.39765141  0.70747459  0.66138705     1.49000
C832        C  0.38020054  0.76508510  0.60143188     0.92600
O833        O  0.27433055  0.69208519  0.60807241    -0.80900
O834        O  0.26584628  0.61452778  0.71343485    -0.74500
Al835      Al  0.30613513  0.71882849  0.66151995     1.90100
O836        O  0.24605296  0.61605132  0.62849745    -0.73500
O837        O  0.33977619  0.60303748  0.69330647    -0.73400
O838        O  0.32119394  0.61531841  0.60633445    -0.79000
O839        O  0.39931625  0.67464078  0.71249041    -0.77200
O840        O  0.33343052  0.68121659  0.66251141    -1.13400
O841        O  0.41086927  0.76121110  0.69605407    -0.72600
C842        C  0.38445492  0.77302565  0.71701398     0.98100
C843        C  0.25109976  0.64703179  0.60015054     0.94500
Al844      Al  0.29629665  0.61674056  0.66099205     1.55600
O845        O  0.35262855  0.76887304  0.62748567    -0.77200
C846        C  0.37703331  0.62869024  0.71612711     0.98700
C847        C  0.24153443  0.63691007  0.71659755     0.93600
O848        O  0.25261395  0.67569202  0.69509929    -0.82500
N849        N  0.32896033  0.94954397  0.80236746    -0.03600
C850        C  0.37341146  0.49012324  0.80794120    -0.01100
C851        C  0.37990004  0.50291820  0.85019771    -0.23900
C852        C  0.33558217  0.47648946  0.86978564    -0.24100
C853        C  0.30381018  0.95029042  0.83729524    -0.01200
H854        H  0.40821959  0.53603087  0.86325732     0.12600
H855        H  0.32748923  0.48747246  0.89951011     0.12700
N856        N  0.32612831  0.90396988  0.79133176    -0.03600
C857        C  0.28050470  0.86433108  0.78728557    -0.01100
C858        C  0.27385999  0.85201784  0.74492778    -0.23900
C859        C  0.31770807  0.88008186  0.72486578    -0.24100
C860        C  0.35219085  0.90388899  0.75672302    -0.01200
H861        H  0.24598665  0.81858010  0.73184709     0.12600
H862        H  0.32574105  0.87012746  0.69460753     0.12700
N863        N  0.10033256  0.94668448  0.79285991    -0.03600
C864        C  0.10290156  0.97312680  0.75645590    -0.01100
C865        C  0.12536660  0.46531642  0.72858172    -0.23900
C866        C  0.14967659  0.44448975  0.75077475    -0.24100
C867        C  0.13989746  0.93892767  0.79173286    -0.01200
H868        H  0.13723010  0.48316529  0.69784134     0.12600
H869        H  0.18184968  0.44424537  0.73928121     0.12700
N870        N  0.05357713  0.90497106  0.80219028    -0.03600
C871        C  0.01493321  0.91396157  0.80434504    -0.01100
C872        C  0.50648876  0.91481215  0.84347919    -0.23900
C873        C  0.53047432  0.89378103  0.86585365    -0.24100
C874        C  0.04989855  0.87606003  0.83728335    -0.01200
H875        H  0.47470968  0.91577271  0.85503558     0.12600
H876        H  0.51874956  0.87655027  0.89681169     0.12700
N877        N  0.09983473  0.67990805  0.79228215    -0.03600
C878        C  0.10279418  0.65559181  0.75763274    -0.01100
C879        C  0.12301200  0.69103736  0.72563461    -0.23900
C880        C  0.14583395  0.73574239  0.74549113    -0.24100
C881        C  0.13704928  0.72661199  0.78841211    -0.01200
H882        H  0.13289224  0.68525733  0.69447583     0.12600
H883        H  0.17220756  0.76912566  0.73073113     0.12700
N884        N  0.05316048  0.67536867  0.80146233    -0.03600
C885        C  0.05023360  0.69887240  0.83687246    -0.01100
C886        C  0.53058586  0.66564181  0.86866495    -0.23900
C887        C  0.50738027  0.62094687  0.84873937    -0.24100
C888        C  0.51627658  0.62993219  0.80586685    -0.01200
H889        H  0.52093368  0.67137419  0.89993304     0.12600
H890        H  0.48098015  0.58766610  0.86352022     0.12700
C891        C  0.25010001  0.75032999  0.85915203     0.86300
C892        C  0.20279592  0.72108798  0.83302193    -0.53900
C893        C  0.17953551  0.74712200  0.81996333     0.09200
C894        C  0.20485610  0.79975267  0.83845407     0.20200
C895        C  0.28182122  0.79775198  0.83361494    -0.54600
C896        C  0.25845366  0.82386101  0.82109000     0.09300
C897        C  0.23437263  0.76683778  0.89624027    -0.54200
C898        C  0.21018855  0.79109672  0.88771583     0.09900
H899        H  0.18817381  0.68247953  0.82763573     0.14400
H900        H  0.18531788  0.82057121  0.83039639     0.00200
H901        H  0.31928453  0.80904496  0.82600062     0.14700
H902        H  0.24047682  0.75790161  0.92864869     0.14500
C903        C  0.24660500  0.53275179  0.86109112     0.86300
C904        C  0.28023129  0.51934309  0.83733341    -0.53900
C905        C  0.26679467  0.96943380  0.83471756     0.09200
C906        C  0.21124549  0.93945081  0.84607651     0.20200
C907        C  0.19926885  0.51315982  0.83531432    -0.54600
C908        C  0.18373357  0.96432066  0.82185466     0.09300
C909        C  0.22897069  0.00075536  0.89911639    -0.54200
C910        C  0.21003330  0.95302268  0.89280149     0.09900
H911        H  0.31867932  0.54613915  0.83526002     0.14400
H912        H  0.19492478  0.89954128  0.84094858     0.00200
H913        H  0.18152888  0.53490173  0.82910430     0.14700
H914        H  0.23646138  0.51468870  0.93137221     0.14500
C915        C  0.46444321  0.74709027  0.86401816     0.86300
C916        C  0.48155810  0.79505454  0.83966503    -0.53900
C917        C  0.02986349  0.81994440  0.83408145     0.09200
C918        C  0.05699301  0.79089465  0.85168525     0.20200
C919        C  0.48129142  0.71722075  0.83935082    -0.54600
C920        C  0.02986157  0.73540862  0.83514445     0.09300
C921        C  0.99489421  0.75987781  0.90449194    -0.54200
C922        C  0.04279964  0.78426351  0.89831390     0.09900
H923        H  0.45699527  0.81033013  0.83683219     0.14400
H924        H  0.09704227  0.81066977  0.84651987     0.00200
H925        H  0.45676633  0.67829578  0.83586973     0.14700
H926        H  0.98000495  0.75511576  0.93565239     0.14500
O927        O  0.31897949  0.74275207  0.88377799    -0.82000
C928        C  0.28439531  0.59069295  0.99560429     0.97400
O929        O  0.25308406  0.58740049  0.96813207    -0.71100
O930        O  0.25528358  0.66458819  0.98937006    -0.74700
Al931      Al  0.25590978  0.63920708  0.93507008     1.49000
C932        C  0.27872290  0.70891019  0.99868879     0.92600
O933        O  0.38021198  0.73884541  0.98909849    -0.80900
O934        O  0.38887430  0.67677131  0.88328062    -0.74500
Al935      Al  0.34935826  0.73839551  0.93588786     1.90100
O936        O  0.40694713  0.68947297  0.97040684    -0.73500
O937        O  0.31144490  0.59289796  0.90004227    -0.73400
O938        O  0.32895661  0.61280343  0.98701863    -0.79000
O939        O  0.25137421  0.60804747  0.88271349    -0.77200
O940        O  0.32064525  0.67408395  0.93382460    -1.13400
O941        O  0.24567893  0.68530613  0.90207461    -0.72600
C942        C  0.27313266  0.72240536  0.87936838     0.98100
C943        C  0.40369964  0.71656984  0.99768921     0.94500
Al944      Al  0.35628483  0.64463465  0.93455517     1.55600
O945        O  0.30279319  0.74027047  0.97029352    -0.77200
C946        C  0.27278225  0.58310017  0.87879897     0.98700
C947        C  0.41363244  0.72292750  0.88068270     0.93600
O948        O  0.40304760  0.74954381  0.90278762    -0.82500
C949        C  0.73766902  0.27516171  0.06743913     0.86300
C950        C  0.70382744  0.23103436  0.09392556    -0.53900
C951        C  0.71829780  0.19660644  0.10117388     0.09200
C952        C  0.77235745  0.21635428  0.08605082     0.20200
C953        C  0.78509078  0.30075366  0.09309952    -0.54600
C954        C  0.80380519  0.27017793  0.10520636     0.09300
C955        C  0.75159291  0.25705429  0.02968081    -0.54200
C956        C  0.76876884  0.22639917  0.03754793     0.09900
H957        H  0.66611966  0.22287719  0.09710537     0.14400
H958        H  0.78728585  0.19120898  0.09375174     0.00200
H959        H  0.80164205  0.33892513  0.10135067     0.14700
H960        H  0.74749414  0.26784488  0.99743318     0.14500
C961        C  0.51578026  0.26385804  0.06777530     0.86300
C962        C  0.50268110  0.29896321  0.08982564    -0.53900
C963        C  0.95297195  0.28160180  0.09710145     0.09200
C964        C  0.92256270  0.22665268  0.08386452     0.20200
C965        C  0.49567860  0.21717945  0.09524492    -0.54600
C966        C  0.94744867  0.19752938  0.10596281     0.09300
C967        C  0.98339801  0.24761332  0.03000605    -0.54200
C968        C  0.93566780  0.22896389  0.03643343     0.09900
H969        H  0.52948033  0.33755251  0.09197639     0.14400
H970        H  0.88280967  0.21034753  0.08967998     0.00200
H971        H  0.51753247  0.20006590  0.10361843     0.14700
H972        H  0.99784888  0.25110212  0.99889764     0.14500
C973        C  0.73044725  0.47989632  0.06659969     0.86300
C974        C  0.77943597  0.49496881  0.08732332    -0.53900
C975        C  0.80811151  0.04465890  0.09528923     0.09200
C976        C  0.77911932  0.07346753  0.08240172     0.20200
C977        C  0.70417793  0.49537241  0.09675342    -0.54600
C978        C  0.72534821  0.04602073  0.10303823     0.09300
C979        C  0.74118373  0.01341560  0.02877188    -0.54200
C980        C  0.76767968  0.06104136  0.03532429     0.09900
H981        H  0.79355654  0.46930997  0.08937541     0.14400
H982        H  0.80012881  0.11337745  0.08849071     0.00200
H983        H  0.66597272  0.46995591  0.10197010     0.14700
H984        H  0.73080173  0.99949773  0.99710913     0.14500
O985        O  0.73110170  0.34360420  0.04188024    -0.82000
C986        C  0.57402954  0.30203678  0.93434338     0.97400
O987        O  0.57242083  0.27066723  0.96101707    -0.71100
O988        O  0.65054485  0.27593803  0.93848475    -0.73500
Al989      Al  0.62500194  0.27562897  0.99345042     1.49000
C990        C  0.69424748  0.30090156  0.92752525     0.92600
O991        O  0.72105015  0.39913970  0.93815119    -0.80900
O992        O  0.65994737  0.40633060  0.04532731    -0.74500
Al993      Al  0.72307016  0.37065139  0.99039098     1.90100
O994        O  0.67164223  0.42529630  0.95776030    -0.73500
O995        O  0.57625882  0.32879947  0.02864003    -0.73400
O996        O  0.59564571  0.34676041  0.94252772    -0.79000
O997        O  0.59236156  0.26939072  0.04615821    -0.77200
O998        O  0.65840346  0.34013964  0.99412433    -1.13400
O999        O  0.67273979  0.26945647  0.02614179    -0.72600
C1000       C  0.71081707  0.29822668  0.04727558     0.98100
C1001       C  0.69809322  0.42160856  0.93000665     0.94500
Al1002     Al  0.62770492  0.37437366  0.99413250     1.55600
O1003       O  0.72603859  0.32483442  0.95554068    -0.77200
C1004       C  0.56652712  0.29004545  0.04986024     0.98700
C1005       C  0.70597759  0.43073081  0.04782125     0.93600
O1006       O  0.73253914  0.42277079  0.02335070    -0.82500
N1007       N  0.65631455  0.11271490  0.13171058    -0.03600
C1008       C  0.60940312  0.10765219  0.13154365    -0.01100
C1009       C  0.59670790  0.11322462  0.09019810    -0.23900
C1010       C  0.63951522  0.13595561  0.06820512    -0.24100
C1011       C  0.67680086  0.14431446  0.09758516    -0.01200
H1012       H  0.56397951  0.11464285  0.08031063     0.12600
H1013       H  0.64370683  0.15660968  0.03893715     0.12700
N1014       N  0.66024381  0.06784788  0.13115113    -0.03600
C1015       C  0.68717228  0.06405439  0.09816893    -0.01100
C1016       C  0.65260596  0.53998746  0.06501940    -0.23900
C1017       C  0.60921870  0.51196565  0.08541666    -0.24100
C1018       C  0.61616683  0.02517111  0.12693118    -0.01200
H1019       H  0.66038948  0.52906491  0.03516567     0.12600
H1020       H  0.58186154  0.47735183  0.07353039     0.12700
N1021       N  0.93058906  0.34060692  0.13111419    -0.03600
C1022       C  0.96790970  0.38809353  0.12854877    -0.01100
C1023       C  0.47937730  0.40140824  0.08495582    -0.23900
C1024       C  0.45822602  0.35766003  0.06370542    -0.24100
C1025       C  0.93454846  0.31889927  0.09534577    -0.01200
H1026       H  0.50566069  0.43590206  0.07148864     0.12600
H1027       H  0.46896003  0.35346229  0.03237676     0.12700
N1028       N  0.88280166  0.33408971  0.13943349    -0.03600
C1029       C  0.84385868  0.28708920  0.13938664    -0.01100
C1030       C  0.82765373  0.27556643  0.18062394    -0.23900
C1031       C  0.84981344  0.31872740  0.20294351    -0.24100
C1032       C  0.87734826  0.35649765  0.17421076    -0.01200
H1033       H  0.79452538  0.24330265  0.19057796     0.12600
H1034       H  0.83556711  0.32338064  0.23238596     0.12700
C1035       C  0.80304389  0.41882075  0.19729344     0.86300
C1036       C  0.82423944  0.46559093  0.17003930    -0.53900
C1037       C  0.87295446  0.48433799  0.16051996     0.09200
C1038       C  0.89577227  0.45333856  0.18290735     0.20200
C1039       C  0.81484049  0.38308806  0.17478339    -0.54600
C1040       C  0.86348324  0.39775705  0.16995434     0.09300
C1041       C  0.83491059  0.43412629  0.23641397    -0.54200
C1042       C  0.88245300  0.45247259  0.23002607     0.09900
H1043       H  0.80317237  0.48360783  0.16178254     0.14400
H1044       H  0.93540731  0.46843315  0.17745861     0.00200
H1045       H  0.78690878  0.34518176  0.17073924     0.14700
H1046       H  0.82092285  0.43354195  0.26748120     0.14500
C1047       C  0.59315300  0.20006642  0.19837010     0.86300
C1048       C  0.61893847  0.17999855  0.17167179    -0.53900
C1049       C  0.59162426  0.13094578  0.16321363     0.09200
C1050       C  0.53948805  0.10655753  0.18468645     0.20200
C1051       C  0.54429027  0.18641204  0.17661574    -0.54600
C1052       C  0.51347515  0.13723963  0.17114107     0.09300
C1053       C  0.58074585  0.16832491  0.23778412    -0.54200
C1054       C  0.55288955  0.12038394  0.23163191     0.09900
H1055       H  0.65669052  0.20203138  0.16331854     0.14400
H1056       H  0.51674737  0.06661430  0.17933534     0.00200
H1057       H  0.53152436  0.21308221  0.17371152     0.14700
H1058       H  0.59657802  0.18253815  0.26825823     0.14500
C1059       C  0.58409569  0.41230903  0.19688562     0.86300
C1060       C  0.53749407  0.38418782  0.16946454    -0.53900
C1061       C  0.51365639  0.41026330  0.15842321     0.09200
C1062       C  0.53971899  0.46268939  0.17822187     0.20200
C1063       C  0.61660359  0.46084251  0.17381005    -0.54600
C1064       C  0.59400237  0.48739203  0.16196613     0.09300
C1065       C  0.56741100  0.42661023  0.23475411    -0.54200
C1066       C  0.54449837  0.45222864  0.22713372     0.09900
H1067       H  0.52396024  0.34638712  0.16127397     0.14400
H1068       H  0.52105716  0.48458151  0.17110827     0.00200
H1069       H  0.65463547  0.47313068  0.16787396     0.14700
H1070       H  0.57281151  0.41618514  0.26679662     0.14500
O1071       O  0.72869192  0.34975487  0.21755827    -0.82000
C1072       C  0.61642823  0.37130479  0.33535316     0.97400
O1073       O  0.63774824  0.40365818  0.30663235    -0.71100
O1074       O  0.71764017  0.40937967  0.32321224    -0.74700
Al1075     Al  0.68598963  0.40644959  0.27076351     1.49000
C1076       C  0.74256398  0.38874008  0.33132753     0.92600
O1077       O  0.67295772  0.28340091  0.32195749    -0.80900
O1078       O  0.59876071  0.27672606  0.21569767    -0.74500
Al1079     Al  0.69981299  0.31660140  0.26912473     1.90100
O1080       O  0.59769139  0.25298358  0.29881740    -0.73500
O1081       O  0.58262579  0.34764931  0.23759340    -0.73400
O1082       O  0.59392491  0.32701613  0.32466729    -0.79000
O1083       O  0.65428772  0.40766321  0.21914037    -0.77200
O1084       O  0.66116824  0.34241024  0.26855512    -1.13400
O1085       O  0.74133922  0.42209278  0.23680879    -0.72600
C1086       C  0.75241991  0.39597397  0.21443138     0.98100
C1087       C  0.62764315  0.25815971  0.32792258     0.94500
Al1088     Al  0.59734917  0.30401571  0.26875181     1.55600
O1089       O  0.74841031  0.36385640  0.30357433    -0.77200
C1090       C  0.60846241  0.38542051  0.21525932     0.98700
C1091       C  0.62045841  0.25148736  0.21355953     0.93600
O1092       O  0.65870196  0.26241265  0.23536841    -0.82500
N1093       N  0.93215907  0.11476956  0.13717311    -0.03600
C1094       C  0.95923098  0.11885729  0.17332003    -0.01100
C1095       C  0.44565908  0.14479733  0.20197813    -0.23900
C1096       C  0.92522556  0.16672978  0.17932525    -0.24100
C1097       C  0.92378148  0.15430018  0.13740315    -0.01200
H1098       H  0.46325777  0.15779321  0.23257221     0.12600
H1099       H  0.42373790  0.20026531  0.18874229     0.12700
N1100       N  0.89084590  0.06730168  0.12879553    -0.03600
C1101       C  0.89894368  0.02759572  0.12800815    -0.01100
C1102       C  0.89893728  0.51720937  0.08823427    -0.23900
C1103       C  0.87743082  0.04082739  0.06317073    -0.24100
C1104       C  0.86353695  0.06379093  0.09295463    -0.01200
H1105       H  0.90051617  0.48541828  0.07734937     0.12600
H1106       H  0.86252912  0.52922227  0.03334610     0.12700
C1107       C  0.92970538  0.37387893  0.52821838     0.86300
C1108       C  0.95810538  0.35560705  0.50320068    -0.53900
C1109       C  0.93606572  0.30525604  0.49851360     0.09200
C1110       C  0.88204938  0.27973249  0.51702135     0.20200
C1111       C  0.88178748  0.35756447  0.50505751    -0.54600
C1112       C  0.85309828  0.30771436  0.50033944     0.09300
C1113       C  0.91656121  0.34319121  0.56841545    -0.54200
C1114       C  0.89272858  0.29505525  0.56334078     0.09900
H1115       H  0.99726099  0.37922808  0.50161850     0.14400
H1116       H  0.86143999  0.23946568  0.51268369     0.00200
H1117       H  0.86734837  0.38284156  0.50233490     0.14700
H1118       H  0.92719816  0.35851407  0.59928176     0.14500
C1119       C  0.92051480  0.08696396  0.52608851     0.86300
C1120       C  0.87376336  0.05697052  0.49951037    -0.53900
C1121       C  0.84953752  0.08210506  0.48657238     0.09200
C1122       C  0.87397227  0.13483944  0.50459088     0.20200
C1123       C  0.95167960  0.13429877  0.50099686    -0.54600
C1124       C  0.92769231  0.15904148  0.48716172     0.09300
C1125       C  0.90385329  0.10296867  0.56301514    -0.54200
C1126       C  0.87883336  0.12657144  0.55424103     0.09900
H1127       H  0.86058008  0.01880613  0.49313791     0.14400
H1128       H  0.85435394  0.15543383  0.49590678     0.00200
H1129       H  0.98990119  0.14723364  0.49544035     0.14700
H1130       H  0.91051586  0.09453931  0.59528406     0.14500
C1131       C  0.64123754  0.09097045  0.52757366     0.86300
C1132       C  0.66110983  0.13573220  0.49814108    -0.53900
C1133       C  0.70986066  0.15522028  0.48808609     0.09200
C1134       C  0.73480332  0.12875268  0.51331686     0.20200
C1135       C  0.65551151  0.05491951  0.50900146    -0.54600
C1136       C  0.70448098  0.07212902  0.50307789     0.09300
C1137       C  0.67299398  0.11106222  0.56593378    -0.54200
C1138       C  0.72093251  0.13237888  0.55955286     0.09900
H1139       H  0.64113404  0.15539065  0.49359382     0.14400
H1140       H  0.77466804  0.14520842  0.50835371     0.00200
H1141       H  0.62928728  0.01614975  0.50739298     0.14700
H1142       H  0.65827918  0.11143845  0.59635345     0.14500
O1143       O  0.56610328  0.02202194  0.54810124    -0.82000
C1144       C  0.95238884  0.04938923  0.66442855     0.97400
O1145       O  0.97640570  0.08181328  0.63668030    -0.71100
O1146       O  0.55690625  0.08392731  0.65227242    -0.74700
Al1147     Al  0.52425129  0.08106517  0.60103088     1.49000
C1148       C  0.58097982  0.06247832  0.66045898     0.92600
O1149       O  0.01003745  0.45755936  0.65329041    -0.80900
O1150       O  0.93393345  0.44957456  0.54680850    -0.74500
Al1151     Al  0.53585468  0.48880142  0.60257557     1.90100
O1152       O  0.93429757  0.42782777  0.63209457    -0.73500
O1153       O  0.91991871  0.02288296  0.56781220    -0.73400
O1154       O  0.93096290  0.00509291  0.65450727    -0.79000
O1155       O  0.99157576  0.08308498  0.54934985    -0.77200
O1156       O  0.99810071  0.01743403  0.60023938    -1.13400
O1157       O  0.57845394  0.09492734  0.56548976    -0.72600
C1158       C  0.59012773  0.06818359  0.54441313     0.98100
C1159       C  0.96498516  0.43362759  0.66099254     0.94500
Al1160     Al  0.93399366  0.47816107  0.59968160     1.55600
O1161       O  0.58645836  0.03721996  0.63310287    -0.77200
C1162       C  0.94563575  0.06080919  0.54553956     0.98700
C1163       C  0.95610133  0.42500719  0.54407023     0.93600
O1164       O  0.99410605  0.43563651  0.56623478    -0.82500
N1165       N  0.72379305  0.00959344  0.46951640    -0.03600
C1166       C  0.72216301  0.03377293  0.50488696    -0.01100
C1167       C  0.70087756  0.99792492  0.53635622    -0.23900
C1168       C  0.67648412  0.45096299  0.51568281    -0.24100
C1169       C  0.68709979  0.46148753  0.47325752    -0.01200
H1170       H  0.69118172  0.00374521  0.56758027     0.12600
H1171       H  0.64850144  0.41757834  0.52878497     0.12700
N1172       N  0.77030561  0.01448256  0.45930018    -0.03600
C1173       C  0.80768321  0.06105088  0.45471118    -0.01100
C1174       C  0.81801119  0.06886291  0.41198590    -0.23900
C1175       C  0.79501091  0.02382764  0.39298520    -0.24100
C1176       C  0.77466838  0.49212643  0.42574325    -0.01200
H1177       H  0.84626408  0.10107883  0.39736254     0.12600
H1178       H  0.80777996  0.52271345  0.36364972     0.12700
N1179       N  0.99700260  0.23765764  0.45922697    -0.03600
C1180       C  0.95121229  0.19939737  0.45361466    -0.01100
C1181       C  0.94591367  0.18922615  0.41075564    -0.23900
C1182       C  0.48894178  0.21809341  0.39372896    -0.24100
C1183       C  0.52311662  0.23821677  0.42655028    -0.01200
H1184       H  0.91689417  0.15818602  0.39567426     0.12600
H1185       H  0.49671002  0.20946985  0.36278463     0.12700
N1186       N  0.49902457  0.28347192  0.47236025    -0.03600
C1187       C  0.54482707  0.32129957  0.47838864    -0.01100
C1188       C  0.55067649  0.32954965  0.52165158    -0.23900
C1189       C  0.00397391  0.30238268  0.53682779    -0.24100
C1190       C  0.97126258  0.28345167  0.50294986    -0.01200
H1191       H  0.58020549  0.35922179  0.53771301     0.12600
H1192       H  0.99540030  0.31072973  0.56754072     0.12700
N1193       N  0.76885222  0.28560596  0.46803427    -0.03600
C1194       C  0.79739607  0.28912481  0.50328364    -0.01100
C1195       C  0.78471029  0.31263193  0.53353989    -0.23900
C1196       C  0.76349646  0.33693449  0.51183572    -0.24100
C1197       C  0.76047872  0.32499215  0.46957627    -0.01200
H1198       H  0.80276055  0.32434715  0.56416084     0.12600
H1199       H  0.76326125  0.36906326  0.52364402     0.12700
N1200       N  0.72694673  0.23850319  0.45988473    -0.03600
C1201       C  0.73473425  0.19895252  0.45785950    -0.01100
C1202       C  0.73193470  0.18750420  0.41546896    -0.23900
C1203       C  0.71060052  0.21186538  0.39421719    -0.24100
C1204       C  0.69803648  0.23477136  0.42507074    -0.01200
H1205       H  0.73190134  0.15535726  0.40336874     0.12600
H1206       H  0.69218610  0.20022052  0.36372591     0.12700
C1207       C  0.57156004  0.43341401  0.40546885     0.86300
C1208       C  0.54251553  0.38813633  0.43362194    -0.53900
C1209       C  0.56692132  0.36329325  0.44638765     0.09200
C1210       C  0.61792009  0.38482216  0.42499633     0.20200
C1211       C  0.62091290  0.46462322  0.42844517    -0.54600
C1212       C  0.64562983  0.43966449  0.44033685     0.09300
C1213       C  0.58384138  0.41410618  0.36801787    -0.54200
C1214       C  0.60628264  0.38786881  0.37571104     0.09900
H1215       H  0.00317816  0.37213866  0.43509008     0.14400
H1216       H  0.63737612  0.36384908  0.43275138     0.00200
H1217       H  0.63117393  0.00219391  0.43751568     0.14700
H1218       H  0.57389577  0.42010119  0.33598011     0.14500
C1219       C  0.56616967  0.14935232  0.40029200     0.86300
C1220       C  0.61380418  0.16559361  0.42396490    -0.53900
C1221       C  0.64260700  0.21548673  0.42913644     0.09200
C1222       C  0.61467490  0.24345443  0.41180365     0.20200
C1223       C  0.53753869  0.16736037  0.42486623    -0.54600
C1224       C  0.55950270  0.21755859  0.42942052     0.09300
C1225       C  0.58025074  0.18020719  0.36018598    -0.54200
C1226       C  0.60765387  0.22838581  0.36542430     0.09900
H1227       H  0.62849623  0.14049032  0.42522311     0.14400
H1228       H  0.63549188  0.28366141  0.41641349     0.00200
H1229       H  0.00044220  0.14277939  0.42886661     0.14700
H1230       H  0.57088681  0.16446040  0.32934971     0.14500
C1231       C  0.85259129  0.43389683  0.40128772     0.86300
C1232       C  0.84032440  0.46951908  0.42359587    -0.53900
C1233       C  0.79147690  0.45352781  0.42955922     0.09200
C1234       C  0.75993171  0.39864148  0.41655240     0.20200
C1235       C  0.83201328  0.38701918  0.42777765    -0.54600
C1236       C  0.78375020  0.36828288  0.43836356     0.09300
C1237       C  0.82040600  0.41820852  0.36252484    -0.54200
C1238       C  0.77293147  0.40082995  0.36913519     0.09900
H1239       H  0.86660266  0.00702773  0.42584147     0.14400
H1240       H  0.72036581  0.38318181  0.42245938     0.00200
H1241       H  0.85268857  0.36817058  0.43379830     0.14700
H1242       H  0.83453870  0.42073790  0.33126338     0.14500
O1243       O  0.99748994  0.07375981  0.38129143    -0.82000
C1244       C  0.52947672  0.46401113  0.26664202     0.97400
O1245       O  0.56163438  0.98847220  0.29354608    -0.71100
O1246       O  0.56137328  0.06614599  0.27819516    -0.74700
Al1247     Al  0.55950145  0.03426748  0.32995535     1.49000
C1248       C  0.53905371  0.08915553  0.26885035     0.92600
O1249       O  0.93745633  0.01550554  0.27634772    -0.80900
O1250       O  0.92738210  0.43571768  0.38148583    -0.74500
Al1251     Al  0.96720680  0.04183442  0.32954733     1.90100
O1252       O  0.90859296  0.43705276  0.29549962    -0.73500
O1253       O  0.50559944  0.43021532  0.36504519    -0.73400
O1254       O  0.98518758  0.43855672  0.27594447    -0.79000
O1255       O  0.56374472  0.00316458  0.38127794    -0.77200
O1256       O  0.99608211  0.00548030  0.33138754    -1.13400
O1257       O  0.56932135  0.08702488  0.36386927    -0.72600
C1258       C  0.54216042  0.09820759  0.38457859     0.98100
C1259       C  0.91305476  0.46862760  0.26766895     0.94500
Al1260     Al  0.95958460  0.43947669  0.32958645     1.55600
O1261       O  0.51076204  0.09202654  0.29478896    -0.77200
C1262       C  0.54392296  0.45731455  0.38643133     0.98700
C1263       C  0.90298435  0.45803280  0.38399391     0.93600
O1264       O  0.91422396  0.99719372  0.36273911    -0.82500
C1265       C  0.90535734  0.32351648  0.73240193     0.86300
C1266       C  0.94997570  0.34278821  0.76171534    -0.53900
C1267       C  0.97019150  0.39185444  0.77092489     0.09200
C1268       C  0.94415067  0.41739918  0.74592858     0.20200
C1269       C  0.87032460  0.33826857  0.75182115    -0.54600
C1270       C  0.88813808  0.38749505  0.75749319     0.09300
C1271       C  0.92488546  0.35522391  0.69344689    -0.54200
C1272       C  0.94634558  0.40345763  0.69927957     0.09900
H1273       H  0.96660186  0.32063457  0.77017136     0.14400
H1274       H  0.96105727  0.45731819  0.75098758     0.00200
H1275       H  0.83171807  0.31214612  0.75434548     0.14700
H1276       H  0.92460373  0.34011681  0.66315447     0.14500
C1277       C  0.68994417  0.11234016  0.73159486     0.86300
C1278       C  0.67208487  0.13990743  0.75795046    -0.53900
C1279       C  0.62204027  0.11734277  0.76319910     0.09200
C1280       C  0.59652892  0.06324424  0.74434294     0.20200
C1281       C  0.67483762  0.06410202  0.75433515    -0.54600
C1282       C  0.62534616  0.03464870  0.75987025     0.09300
C1283       C  0.65867370  0.09928987  0.69199310    -0.54200
C1284       C  0.61096614  0.07448403  0.69782289     0.09900
H1285       H  0.69563422  0.17907259  0.76060723     0.14400
H1286       H  0.55648425  0.04218739  0.74931910     0.00200
H1287       H  0.70060755  0.05026731  0.75663922     0.14700
H1288       H  0.67320013  0.11063838  0.66083740     0.14500
C1289       C  0.89157719  0.09797590  0.73279468     0.86300
C1290       C  0.86623262  0.05096474  0.75926438    -0.53900
C1291       C  0.89649936  0.03198670  0.77126002     0.09200
C1292       C  0.94924970  0.06181589  0.75102892     0.20200
C1293       C  0.93625147  0.13175096  0.75877470    -0.54600
C1294       C  0.97001728  0.11648070  0.76559224     0.09300
C1295       C  0.90948279  0.08392389  0.69476590    -0.54200
C1296       C  0.93803805  0.06427530  0.70267563     0.09900
H1297       H  0.82838438  0.03496670  0.76812418     0.14400
H1298       H  0.97383879  0.04625155  0.75862027     0.00200
H1299       H  0.94504065  0.16950175  0.76323785     0.14700
H1300       H  0.89851819  0.08766395  0.66258080     0.14500
O1301       O  0.83567303  0.24897579  0.71212217    -0.82000
C1302       C  0.86107355  0.13733494  0.59351397     0.97400
O1303       O  0.89180320  0.15773990  0.62356659    -0.71100
O1304       O  0.90014561  0.23989372  0.60995983    -0.74700
Al1305     Al  0.89291715  0.20474663  0.66101264     1.49000
C1306       C  0.87973487  0.26498464  0.60095143     0.92600
O1307       O  0.77378677  0.19605425  0.60544839    -0.80900
O1308       O  0.76327173  0.11613291  0.70991284    -0.74500
Al1309     Al  0.80457454  0.22062869  0.65976570     1.90100
O1310       O  0.74251547  0.12014166  0.62642920    -0.73500
O1311       O  0.83125416  0.09868456  0.68789643    -0.73400
O1312       O  0.81625866  0.11617180  0.60182573    -0.79000
O1313       O  0.88793874  0.16908587  0.71187357    -0.77200
O1314       O  0.82970905  0.18119937  0.66003552    -1.13400
O1315       O  0.90778907  0.25918320  0.69619579    -0.72600
C1316       C  0.88162868  0.27206197  0.71637538     0.98100
C1317       C  0.75020153  0.15106164  0.59746993     0.94500
Al1318     Al  0.79104162  0.11708575  0.65700125     1.55600
O1319       O  0.85295073  0.27009095  0.62702880    -0.77200
C1320       C  0.86573966  0.12282596  0.71350241     0.98700
C1321       C  0.74002555  0.13925136  0.71453471     0.93600
O1322       O  0.75031654  0.17789773  0.69291936    -0.82500
N1323       N  0.82883077  0.45093363  0.80357609    -0.03600
C1324       C  0.88006539  0.99220690  0.80536496    -0.01100
C1325       C  0.89129401  0.00692072  0.84695799    -0.23900
C1326       C  0.84827129  0.98255258  0.86933535    -0.24100
C1327       C  0.80272753  0.45226025  0.83751051    -0.01200
H1328       H  0.92310228  0.03996928  0.85760638     0.12600
H1329       H  0.84323133  0.99510868  0.89953282     0.12700
N1330       N  0.82610734  0.40536224  0.79264757    -0.03600
C1331       C  0.78010889  0.36617905  0.78889379    -0.01100
C1332       C  0.77115989  0.35678797  0.74610034    -0.23900
C1333       C  0.81468870  0.38411517  0.72535710    -0.24100
C1334       C  0.85041064  0.40561972  0.75672734    -0.01200
H1335       H  0.74060206  0.32625503  0.73205108     0.12600
H1336       H  0.82102119  0.37543459  0.69388987     0.12700
N1337       N  0.59983023  0.45022411  0.79280845    -0.03600
C1338       C  0.60336884  0.47882978  0.75752113    -0.01100
C1339       C  0.63162321  0.96683054  0.72664250    -0.23900
C1340       C  0.65638452  0.94618509  0.74841402    -0.24100
C1341       C  0.63924397  0.44235119  0.79125189    -0.01200
H1342       H  0.64328336  0.98516354  0.69605480     0.12600
H1343       H  0.68882459  0.94667006  0.73667881     0.12700
N1344       N  0.55314397  0.40804526  0.80163428    -0.03600
C1345       C  0.51400199  0.41632211  0.80412382    -0.01100
C1346       C  0.99817638  0.41173903  0.84461523    -0.23900
C1347       C  0.02174455  0.39038788  0.86695847    -0.24100
C1348       C  0.55039353  0.37984564  0.83702615    -0.01200
H1349       H  0.96550493  0.41145101  0.85546823     0.12600
H1350       H  0.00903821  0.37170156  0.89726474     0.12700
N1351       N  0.59925879  0.17860517  0.79413900    -0.03600
C1352       C  0.60056269  0.15276748  0.75983983    -0.01100
C1353       C  0.61971101  0.18715711  0.72692416    -0.23900
C1354       C  0.64549856  0.23217562  0.74595229    -0.24100
C1355       C  0.63752648  0.22461996  0.78913102    -0.01200
H1356       H  0.62839771  0.18006079  0.69575822     0.12600
H1357       H  0.67410125  0.26333705  0.73047153     0.12700
N1358       N  0.55344669  0.17638037  0.80295518    -0.03600
C1359       C  0.55146020  0.20282244  0.83668248    -0.01100
C1360       C  0.05111612  0.23791856  0.75589814    -0.23900
C1361       C  0.03076867  0.19549283  0.73317216    -0.24100
C1362       C  0.02234700  0.15772134  0.76229420    -0.01200
H1363       H  0.04878935  0.27030698  0.74615366     0.12600
H1364       H  0.01084545  0.19130477  0.70353454     0.12700
C1365       C  0.75197480  0.25071753  0.85906432     0.86300
C1366       C  0.70437644  0.22074084  0.83351389    -0.53900
C1367       C  0.68030704  0.24597048  0.82051093     0.09200
C1368       C  0.70500905  0.29868042  0.83894803     0.20200
C1369       C  0.78278266  0.29827950  0.83311903    -0.54600
C1370       C  0.75854235  0.32385364  0.82123898     0.09300
C1371       C  0.73640407  0.26718560  0.89634734    -0.54200
C1372       C  0.71107402  0.29037348  0.88811902     0.09900
H1373       H  0.69005499  0.18206267  0.82874503     0.14400
H1374       H  0.68476010  0.31889260  0.83121127     0.00200
H1375       H  0.82024925  0.31014854  0.82489297     0.14700
H1376       H  0.74333218  0.25881039  0.92867046     0.14500
C1377       C  0.75060794  0.03362754  0.86197117     0.86300
C1378       C  0.78683459  0.02108413  0.84180914    -0.53900
C1379       C  0.76498149  0.47034345  0.83244266     0.09200
C1380       C  0.70990383  0.43988158  0.84508881     0.20200
C1381       C  0.70616273  0.01467558  0.83256221    -0.54600
C1382       C  0.68154958  0.46523056  0.82292414     0.09300
C1383       C  0.73019774  0.50008300  0.89952431    -0.54200
C1384       C  0.71075291  0.45245622  0.89246160     0.09900
H1385       H  0.82512417  0.04866805  0.83955457     0.14400
H1386       H  0.69351213  0.40014960  0.83891457     0.00200
H1387       H  0.68870451  0.03636123  0.82513846     0.14700
H1388       H  0.73167004  0.01424738  0.93124431     0.14500
C1389       C  0.96554390  0.24354458  0.86440022     0.86300
C1390       C  0.97915774  0.29169897  0.84052409    -0.53900
C1391       C  0.53035964  0.32372484  0.83470530     0.09200
C1392       C  0.55790194  0.29438756  0.85062975     0.20200
C1393       C  0.98521086  0.21602914  0.83917379    -0.54600
C1394       C  0.53137981  0.23970997  0.83229527     0.09300
C1395       C  0.49568993  0.25961080  0.90318992    -0.54200
C1396       C  0.54355176  0.28493672  0.89724962     0.09900
H1397       H  0.95245874  0.30443093  0.83834902     0.14400
H1398       H  0.59796884  0.31481364  0.84560130     0.00200
H1399       H  0.96273452  0.17811420  0.83089416     0.14700
H1400       H  0.48070225  0.25191002  0.93442794     0.14500
O1401       O  0.82105351  0.24286821  0.88367659    -0.82000
C1402       C  0.78515601  0.09168458  0.99764013     0.97400
O1403       O  0.75440303  0.08791727  0.96931826    -0.71100
O1404       O  0.75625129  0.16522051  0.98907642    -0.74700
Al1405     Al  0.75768748  0.13958640  0.93538186     1.49000
C1406       C  0.78000770  0.20935167  0.99888028     0.92600
O1407       O  0.88215069  0.23934143  0.98903174    -0.80900
O1408       O  0.89056842  0.17334849  0.88557769    -0.74500
Al1409     Al  0.85140328  0.23821276  0.93594775     1.90100
O1410       O  0.90833649  0.18917566  0.97179232    -0.73500
O1411       O  0.81264367  0.09174971  0.90375833    -0.73400
O1412       O  0.82989033  0.11427155  0.99003725    -0.79000
O1413       O  0.75431713  0.10841549  0.88335027    -0.77200
O1414       O  0.82235771  0.17401355  0.93473449    -1.13400
O1415       O  0.74777715  0.18556747  0.90179716    -0.72600
C1416       C  0.77524026  0.22277154  0.87922302     0.98100
C1417       C  0.90497798  0.21669155  0.99842201     0.94500
Al1418     Al  0.85751662  0.14379614  0.93715790     1.55600
O1419       O  0.80525928  0.24106230  0.97098638    -0.77200
C1420       C  0.77558172  0.08318457  0.88062511     0.98700
C1421       C  0.91503922  0.21932365  0.88171550     0.93600
O1422       O  0.90432820  0.24690746  0.90257435    -0.82500
C1423       C  0.73855418  0.77669557  0.06857006     0.86300
C1424       C  0.70561977  0.73263095  0.09557473    -0.53900
C1425       C  0.72052026  0.69834837  0.10216684     0.09200
C1426       C  0.77427598  0.71852565  0.08616891     0.20200
C1427       C  0.78673278  0.80280959  0.09333463    -0.54600
C1428       C  0.80610166  0.77259957  0.10484681     0.09300
C1429       C  0.75163093  0.75832536  0.03046453    -0.54200
C1430       C  0.76905823  0.72780632  0.03786996     0.09900
H1431       H  0.66778532  0.72399487  0.09868112     0.14400
H1432       H  0.78960238  0.69362376  0.09338627     0.00200
H1433       H  0.80340682  0.84110771  0.10125364     0.14700
H1434       H  0.74647178  0.76852998  0.99829562     0.14500
C1435       C  0.51531058  0.76409090  0.06810769     0.86300
C1436       C  0.50168713  0.79851454  0.09043345    -0.53900
C1437       C  0.95455413  0.78284299  0.09534100     0.09200
C1438       C  0.92297915  0.72779427  0.08297869     0.20200
C1439       C  0.49578990  0.71744981  0.09554191    -0.54600
C1440       C  0.94698732  0.69808361  0.10566786     0.09300
C1441       C  0.98312939  0.74591338  0.02912123    -0.54200
C1442       C  0.93547774  0.72871565  0.03560482     0.09900
H1443       H  0.52814856  0.83718453  0.09278258     0.14400
H1444       H  0.88339053  0.71253662  0.08899369     0.00200
H1445       H  0.51816187  0.70096565  0.10416350     0.14700
H1446       H  0.99716102  0.74705999  0.99822892     0.14500
C1447       C  0.73069979  0.98053549  0.06760561     0.86300
C1448       C  0.77954554  0.99536475  0.08835095    -0.53900
C1449       C  0.80773188  0.54427918  0.09429237     0.09200
C1450       C  0.77868400  0.57298211  0.08122961     0.20200
C1451       C  0.70444692  0.99591443  0.09767446    -0.54600
C1452       C  0.72502398  0.54556432  0.10194316     0.09300
C1453       C  0.74068549  0.51272972  0.02773152    -0.54200
C1454       C  0.76712726  0.56041549  0.03416097     0.09900
H1455       H  0.79358797  0.96963689  0.08967775     0.14400
H1456       H  0.79964466  0.61292530  0.08719125     0.00200
H1457       H  0.66611649  0.97060427  0.10222523     0.14700
H1458       H  0.72974253  0.49869550  0.99621528     0.14500
O1459       O  0.73101602  0.84472913  0.04343140    -0.82000
C1460       C  0.57403007  0.80321621  0.93531774     0.97400
O1461       O  0.57246452  0.77198800  0.96213928    -0.71100
O1462       O  0.65053304  0.77726552  0.93961894    -0.73500
Al1463     Al  0.62506472  0.77688063  0.99467837     1.49000
C1464       C  0.69423137  0.80235173  0.92869446     0.92600
O1465       O  0.72164579  0.89992747  0.93954696    -0.80900
O1466       O  0.66009432  0.90737506  0.04624171    -0.74500
Al1467     Al  0.72321729  0.87155751  0.99175307     1.90100
O1468       O  0.67231163  0.92646287  0.95847037    -0.73500
O1469       O  0.57596895  0.82988959  0.02945262    -0.73400
O1470       O  0.59582728  0.84802246  0.94331145    -0.79000
O1471       O  0.59253939  0.77083644  0.04727639    -0.77200
O1472       O  0.65851147  0.84129990  0.99527406    -1.13400
O1473       O  0.67285327  0.77056865  0.02766980    -0.72600
C1474       C  0.71101945  0.79939367  0.04876902     0.98100
C1475       C  0.69896311  0.92251243  0.93097848     0.94500
Al1476     Al  0.62790766  0.87561316  0.99500219     1.55600
O1477       O  0.72596821  0.82562534  0.95698964    -0.77200
C1478       C  0.56623580  0.79101569  0.05057410     0.98700
C1479       C  0.70613102  0.93153606  0.04884825     0.93600
O1480       O  0.73270812  0.92358853  0.02443623    -0.82500
N1481       N  0.65773761  0.61383979  0.13102184    -0.03600
C1482       C  0.61107201  0.60932955  0.13014499    -0.01100
C1483       C  0.59963233  0.61616332  0.08869169    -0.23900
C1484       C  0.64293903  0.63838346  0.06735794    -0.24100
C1485       C  0.67940345  0.64593933  0.09740389    -0.01200
H1486       H  0.56746419  0.61841319  0.07836434     0.12600
H1487       H  0.64810245  0.65959498  0.03826366     0.12700
N1488       N  0.66098926  0.56861669  0.13053347    -0.03600
C1489       C  0.68695008  0.56380031  0.09726936    -0.01100
C1490       C  0.65360070  0.04095653  0.06520162    -0.23900
C1491       C  0.60967556  0.01231321  0.08468959    -0.24100
C1492       C  0.61660370  0.52612064  0.12730395    -0.01200
H1493       H  0.66213622  0.03103667  0.03520737     0.12600
H1494       H  0.58223875  0.97832439  0.07175037     0.12700
N1495       N  0.93431907  0.84341249  0.12828678    -0.03600
C1496       C  0.97213395  0.89067385  0.12627107    -0.01100
C1497       C  0.47833590  0.89955447  0.08564460    -0.23900
C1498       C  0.45658652  0.85597762  0.06416205    -0.24100
C1499       C  0.93800542  0.82145447  0.09268054    -0.01200
H1500       H  0.50569671  0.93371644  0.07250207     0.12600
H1501       H  0.46747139  0.85176789  0.03289537     0.12700
N1502       N  0.88683534  0.83712093  0.13713887    -0.03600
C1503       C  0.84799459  0.79004672  0.13753708    -0.01100
C1504       C  0.83450699  0.77787733  0.17937321    -0.23900
C1505       C  0.85782863  0.82080419  0.20202515    -0.24100
C1506       C  0.88290219  0.85889548  0.17288965    -0.01200
H1507       H  0.80225764  0.74530294  0.19021873     0.12600
H1508       H  0.84528317  0.82496478  0.23253547     0.12700
C1509       C  0.80541526  0.91787327  0.19699236     0.86300
C1510       C  0.82550904  0.96382157  0.16858843    -0.53900
C1511       C  0.87436577  0.98364100  0.15886950     0.09200
C1512       C  0.89853322  0.95464299  0.18238721     0.20200
C1513       C  0.81843732  0.88240765  0.17589865    -0.54600
C1514       C  0.86722993  0.89865295  0.17043668     0.09300
C1515       C  0.83738053  0.93522441  0.23588947    -0.54200
C1516       C  0.88508488  0.95484611  0.22946131     0.09900
H1517       H  0.80378185  0.98109717  0.16057462     0.14400
H1518       H  0.93828151  0.97044281  0.17700163     0.00200
H1519       H  0.79136912  0.84407015  0.17258071     0.14700
H1520       H  0.82314426  0.93421610  0.26699963     0.14500
C1521       C  0.59350644  0.69958335  0.19869306     0.86300
C1522       C  0.61959064  0.68024861  0.17162643    -0.53900
C1523       C  0.59259901  0.63142496  0.16236838     0.09200
C1524       C  0.54047591  0.60620901  0.18398989     0.20200
C1525       C  0.54446876  0.68581487  0.17704683    -0.54600
C1526       C  0.51394518  0.63662361  0.17090287     0.09300
C1527       C  0.58127611  0.66742871  0.23771507    -0.54200
C1528       C  0.55393300  0.61952882  0.23118137     0.09900
H1529       H  0.65751206  0.70248045  0.16398571     0.14400
H1530       H  0.51805422  0.56632059  0.17826667     0.00200
H1531       H  0.53144996  0.71230460  0.17456680     0.14700
H1532       H  0.59633361  0.68155119  0.26842467     0.14500
C1533       C  0.58399735  0.91117288  0.19691148     0.86300
C1534       C  0.53672582  0.88234153  0.17020082    -0.53900
C1535       C  0.51263716  0.90820824  0.15893345     0.09200
C1536       C  0.53918251  0.96114123  0.17765180     0.20200
C1537       C  0.61598013  0.95915492  0.17297997    -0.54600
C1538       C  0.59317627  0.98542080  0.16081077     0.09300
C1539       C  0.56782545  0.92645175  0.23460697    -0.54200
C1540       C  0.54472247  0.95194140  0.22663068     0.09900
H1541       H  0.52305641  0.84433750  0.16259972     0.14400
H1542       H  0.52041838  0.98288213  0.17022182     0.00200
H1543       H  0.65417399  0.97183230  0.16764624     0.14700
H1544       H  0.57341945  0.91648686  0.26667551     0.14500
O1545       O  0.73137984  0.84816865  0.21819446    -0.82000
C1546       C  0.61961415  0.87371311  0.33468603     0.97400
O1547       O  0.64059553  0.90504799  0.30522608    -0.71100
O1548       O  0.72042324  0.91007454  0.32206346    -0.74700
Al1549     Al  0.68814173  0.90629463  0.26949735     1.49000
C1550       C  0.74388100  0.88808131  0.33136907     0.92600
O1551       O  0.67416881  0.78308747  0.32291009    -0.80900
O1552       O  0.59908990  0.77589002  0.21708297    -0.74500
Al1553     Al  0.70118161  0.81561462  0.26977216     1.90100
O1554       O  0.59898489  0.75318099  0.30021515    -0.73500
O1555       O  0.58397549  0.84769740  0.23863982    -0.73400
O1556       O  0.59741360  0.82895355  0.32543622    -0.79000
O1557       O  0.65520700  0.90651436  0.21786159    -0.77200
O1558       O  0.66301128  0.84214564  0.26852624    -1.13400
O1559       O  0.74293083  0.92073179  0.23542276    -0.72600
C1560       C  0.75466782  0.89437739  0.21416697     0.98100
C1561       C  0.62896036  0.75821113  0.32921356     0.94500
Al1562     Al  0.59909925  0.80432989  0.26984532     1.55600
O1563       O  0.74968687  0.86267771  0.30413833    -0.77200
C1564       C  0.60915112  0.88478150  0.21538859     0.98700
C1565       C  0.62083549  0.75074339  0.21450712     0.93600
O1566       O  0.65931673  0.76151523  0.23603937    -0.82500
N1567       N  0.93070260  0.61566648  0.13811982    -0.03600
C1568       C  0.95794566  0.62037958  0.17419211    -0.01100
C1569       C  0.44554112  0.64266831  0.20203588    -0.23900
C1570       C  0.92459364  0.66895161  0.17921483    -0.24100
C1571       C  0.92260850  0.65540657  0.13754028    -0.01200
H1572       H  0.46284092  0.65471544  0.23287964     0.12600
H1573       H  0.42461495  0.69909284  0.18995608     0.12700
N1574       N  0.88969009  0.56795045  0.12998000    -0.03600
C1575       C  0.89843927  0.52858336  0.13018470    -0.01100
C1576       C  0.89757514  0.01608644  0.08575913    -0.23900
C1577       C  0.87853503  0.54101254  0.06463619    -0.24100
C1578       C  0.86327949  0.56379483  0.09343086    -0.01200
H1579       H  0.89806723  0.98398243  0.07421204     0.12600
H1580       H  0.86043497  0.02944802  0.03212044     0.12700
C1581       C  0.93039934  0.87379284  0.53063222     0.86300
C1582       C  0.95980429  0.85557192  0.50681273    -0.53900
C1583       C  0.93782323  0.80530257  0.50167362     0.09200
C1584       C  0.88350942  0.77956881  0.51940393     0.20200
C1585       C  0.88302749  0.85710847  0.50631298    -0.54600
C1586       C  0.85455543  0.80711853  0.50183131     0.09300
C1587       C  0.91602457  0.84322029  0.57081010    -0.54200
C1588       C  0.89287028  0.79505521  0.56570720     0.09900
H1589       H  0.99898957  0.87923586  0.50533470     0.14400
H1590       H  0.86326567  0.73928198  0.51515387     0.00200
H1591       H  0.86838688  0.88217588  0.50311553     0.14700
H1592       H  0.92477925  0.85884023  0.60166723     0.14500
C1593       C  0.92060077  0.58635166  0.52725053     0.86300
C1594       C  0.87357138  0.55717166  0.50081097    -0.53900
C1595       C  0.84972330  0.58296030  0.48887410     0.09200
C1596       C  0.87519599  0.63560046  0.50738685     0.20200
C1597       C  0.95209136  0.63379475  0.50253936    -0.54600
C1598       C  0.92857146  0.65914349  0.48945106     0.09300
C1599       C  0.90475439  0.60211826  0.56479905    -0.54200
C1600       C  0.88083788  0.62685697  0.55683625     0.09900
H1601       H  0.86014809  0.51919460  0.49339439     0.14400
H1602       H  0.85608915  0.65686362  0.49941836     0.00200
H1603       H  0.99013836  0.64630450  0.49655265     0.14700
H1604       H  0.91124810  0.59288643  0.59691181     0.14500
C1605       C  0.64148473  0.58898290  0.53020804     0.86300
C1606       C  0.66162913  0.63436016  0.50143741    -0.53900
C1607       C  0.71042001  0.65402406  0.49166366     0.09200
C1608       C  0.73504163  0.62671560  0.51639543     0.20200
C1609       C  0.65542016  0.55330080  0.51064679    -0.54600
C1610       C  0.70438556  0.57035881  0.50523039     0.09300
C1611       C  0.67318508  0.60800599  0.56904375    -0.54200
C1612       C  0.72129206  0.62916790  0.56301188     0.09900
H1613       H  0.64099088  0.65318791  0.49570605     0.14400
H1614       H  0.77486338  0.64298132  0.51132382     0.00200
H1615       H  0.62888186  0.51472419  0.50776039     0.14700
H1616       H  0.65816111  0.60801106  0.59924294     0.14500
O1617       O  0.56599579  0.51984139  0.55048659    -0.82000
C1618       C  0.95300392  0.54527408  0.66574813     0.97400
O1619       O  0.97647082  0.57845522  0.63811218    -0.71100
O1620       O  0.55704782  0.58404463  0.65285932    -0.74700
Al1621     Al  0.52393879  0.58008850  0.60147790     1.49000
C1622       C  0.58184381  0.56336127  0.66131718     0.92600
O1623       O  0.01005285  0.95927767  0.65563069    -0.80900
O1624       O  0.93351752  0.94911904  0.54914673    -0.74500
Al1625     Al  0.53671788  0.99016049  0.60004932     1.90100
O1626       O  0.93401284  0.92988647  0.63535450    -0.73500
O1627       O  0.91961375  0.52179184  0.56790197    -0.73400
O1628       O  0.93054600  0.50149336  0.65437070    -0.79000
O1629       O  0.99121864  0.58222753  0.54983475    -0.77200
O1630       O  0.99813318  0.51611760  0.59888649    -1.13400
O1631       O  0.57810567  0.59307593  0.56652492    -0.72600
C1632       C  0.59009584  0.56604431  0.54637404     0.98100
C1633       C  0.96518941  0.93527380  0.66373266     0.94500
Al1634     Al  0.93406488  0.97970093  0.60111739     1.55600
O1635       O  0.58600141  0.53622568  0.63512587    -0.77200
C1636       C  0.94537665  0.55983562  0.54588111     0.98700
C1637       C  0.95616433  0.92498206  0.54664093     0.93600
O1638       O  0.99413083  0.93611103  0.56900174    -0.82500
N1639       N  0.72401025  0.50893060  0.47080330    -0.03600
C1640       C  0.72135167  0.53161188  0.50668218    -0.01100
C1641       C  0.69901604  0.49462539  0.53707955    -0.23900
C1642       C  0.67716016  0.95348794  0.51619685    -0.24100
C1643       C  0.68648894  0.96249274  0.47339220    -0.01200
H1644       H  0.68818044  0.49919689  0.56825251     0.12600
H1645       H  0.64930860  0.92083739  0.53058194     0.12700
N1646       N  0.77105441  0.51543320  0.46056698    -0.03600
C1647       C  0.80758044  0.56263547  0.45720808    -0.01100
C1648       C  0.81768263  0.57243462  0.41459590    -0.23900
C1649       C  0.79673300  0.52802906  0.39445902    -0.24100
C1650       C  0.77306386  0.98937505  0.42533431    -0.01200
H1651       H  0.84404506  0.60635620  0.40059334     0.12600
H1652       H  0.80565151  0.01685046  0.36261727     0.12700
N1653       N  0.99764647  0.73694435  0.46072293    -0.03600
C1654       C  0.95181011  0.69869959  0.45545876    -0.01100
C1655       C  0.94634207  0.68727245  0.41288840    -0.23900
C1656       C  0.48926203  0.71560225  0.39315813    -0.24100
C1657       C  0.52317847  0.73671489  0.42604021    -0.01200
H1658       H  0.91801519  0.65492343  0.39868067     0.12600
H1659       H  0.49734054  0.70615009  0.36270069     0.12700
N1660       N  0.49822831  0.78324436  0.46933365    -0.03600
C1661       C  0.54408635  0.82119619  0.47484120    -0.01100
C1662       C  0.55024204  0.83103950  0.51770372    -0.23900
C1663       C  0.00585080  0.80127338  0.53863933    -0.24100
C1664       C  0.97265933  0.78298497  0.50505258    -0.01200
H1665       H  0.58001253  0.86148914  0.53272857     0.12600
H1666       H  0.99791626  0.80912626  0.56981900     0.12700
N1667       N  0.77006750  0.78441689  0.46979205    -0.03600
C1668       C  0.79880476  0.78818039  0.50496582    -0.01100
C1669       C  0.78620061  0.81178130  0.53517385    -0.23900
C1670       C  0.76554836  0.83649100  0.51323624    -0.24100
C1671       C  0.76219854  0.82415149  0.47102014    -0.01200
H1672       H  0.80427811  0.82350861  0.56578839     0.12600
H1673       H  0.76569302  0.86886127  0.52488563     0.12700
N1674       N  0.72769044  0.73736498  0.46233951    -0.03600
C1675       C  0.73508444  0.69745929  0.46089336    -0.01100
C1676       C  0.73239681  0.68563567  0.41861114    -0.23900
C1677       C  0.71167744  0.71029979  0.39684339    -0.24100
C1678       C  0.69897992  0.73353112  0.42729889    -0.01200
H1679       H  0.73217238  0.65326974  0.40683326     0.12600
H1680       H  0.69356924  0.69864601  0.36623906     0.12700
C1681       C  0.57171318  0.93393130  0.40371186     0.86300
C1682       C  0.54152906  0.88671175  0.42920770    -0.53900
C1683       C  0.56616720  0.86244072  0.44245217     0.09200
C1684       C  0.61861703  0.88610477  0.42383174     0.20200
C1685       C  0.61907746  0.96456560  0.42938240    -0.54600
C1686       C  0.64425726  0.94007426  0.44127154     0.09300
C1687       C  0.58785087  0.91814213  0.36632569    -0.54200
C1688       C  0.61006319  0.89164676  0.37440103     0.09900
H1689       H  0.00328763  0.87212476  0.43785551     0.14400
H1690       H  0.63820605  0.86533252  0.43191680     0.00200
H1691       H  0.63384847  0.50255401  0.43625623     0.14700
H1692       H  0.57985856  0.92588054  0.33424923     0.14500
C1693       C  0.56745142  0.64883718  0.40110179     0.86300
C1694       C  0.61464710  0.66471907  0.42540736    -0.53900
C1695       C  0.64345330  0.71455754  0.43081975     0.09200
C1696       C  0.61562749  0.74274318  0.41322026     0.20200
C1697       C  0.53847633  0.66646208  0.42561364    -0.54600
C1698       C  0.56006293  0.71661900  0.43019860     0.09300
C1699       C  0.58201767  0.68007973  0.36119024    -0.54200
C1700       C  0.60918336  0.72817885  0.36671042     0.09900
H1701       H  0.62906644  0.63938218  0.42733306     0.14400
H1702       H  0.63631361  0.78290062  0.41815741     0.00200
H1703       H  0.00139023  0.64120299  0.43071419     0.14700
H1704       H  0.57307648  0.66463361  0.33021662     0.14500
C1705       C  0.85318149  0.93358338  0.40201398     0.86300
C1706       C  0.83997724  0.96834108  0.42461599    -0.53900
C1707       C  0.79085022  0.95153213  0.43046429     0.09200
C1708       C  0.76026664  0.89667460  0.41715347     0.20200
C1709       C  0.83319888  0.88650086  0.42839850    -0.54600
C1710       C  0.78482354  0.86698155  0.43906535     0.09300
C1711       C  0.82117864  0.91784670  0.36319894    -0.54200
C1712       C  0.77361588  0.89968444  0.36964759     0.09900
H1713       H  0.86751490  0.50801558  0.42530937     0.14400
H1714       H  0.72059827  0.88051794  0.42297452     0.00200
H1715       H  0.85456751  0.86841812  0.43471121     0.14700
H1716       H  0.83552009  0.92132431  0.33181887     0.14500
O1717       O  0.99704292  0.57299565  0.38006089    -0.82000
C1718       C  0.52941364  0.96434050  0.26571648     0.97400
O1719       O  0.56186122  0.48747292  0.29455168    -0.71100
O1720       O  0.56218417  0.56511386  0.27797043    -0.74700
Al1721     Al  0.56038063  0.53383962  0.33029394     1.49000
C1722       C  0.54015502  0.58841149  0.26858632     0.92600
O1723       O  0.93577352  0.51330692  0.27601914    -0.80900
O1724       O  0.92804299  0.93637774  0.38137900    -0.74500
Al1725     Al  0.96621555  0.54053091  0.32862037     1.90100
O1726       O  0.91000863  0.93921068  0.29535769    -0.73500
O1727       O  0.50591840  0.93011618  0.36302266    -0.73400
O1728       O  0.98666749  0.94074637  0.27570185    -0.79000
O1729       O  0.56472772  0.50317142  0.38200686    -0.77200
O1730       O  0.99514139  0.50430609  0.33054618    -1.13400
O1731       O  0.57062994  0.58703249  0.36382977    -0.72600
C1732       C  0.54348903  0.59800530  0.38484716     0.98100
C1733       C  0.91516622  0.97096840  0.26748309     0.94500
Al1734     Al  0.96047731  0.94078826  0.32949835     1.55600
O1735       O  0.51291470  0.59236578  0.29502460    -0.77200
C1736       C  0.54371361  0.95729780  0.38486150     0.98700
C1737       C  0.90359361  0.95854994  0.38446791     0.93600
O1738       O  0.91383468  0.49649123  0.36206381    -0.82500
C1739       C  0.90735412  0.82401777  0.73412260     0.86300
C1740       C  0.95221964  0.84290410  0.76282583    -0.53900
C1741       C  0.97235527  0.89154194  0.77307015     0.09200
C1742       C  0.94595934  0.91755115  0.74889484     0.20200
C1743       C  0.87223271  0.83816865  0.75417430    -0.54600
C1744       C  0.88992817  0.88726574  0.76026844     0.09300
C1745       C  0.92646522  0.85628811  0.69541970    -0.54200
C1746       C  0.94756916  0.90444786  0.70180724     0.09900
H1747       H  0.96977244  0.82113283  0.76927476     0.14400
H1748       H  0.96262497  0.95744107  0.75460941     0.00200
H1749       H  0.83356306  0.81201450  0.75622182     0.14700
H1750       H  0.92606914  0.84158876  0.66493269     0.14500
C1751       C  0.69086417  0.61143099  0.73341869     0.86300
C1752       C  0.67352294  0.64011931  0.75924209    -0.53900
C1753       C  0.62339502  0.61893491  0.76368341     0.09200
C1754       C  0.59688898  0.56513518  0.74474438     0.20200
C1755       C  0.67355307  0.56276227  0.75585698    -0.54600
C1756       C  0.62365670  0.53489675  0.76068442     0.09300
C1757       C  0.66026063  0.59935284  0.69328079    -0.54200
C1758       C  0.61219927  0.57614835  0.69852324     0.09900
H1759       H  0.69781409  0.67915738  0.76199428     0.14400
H1760       H  0.55670926  0.54516189  0.74917785     0.00200
H1761       H  0.69811404  0.54749766  0.75831988     0.14700
H1762       H  0.67575892  0.60977305  0.66247976     0.14500
C1763       C  0.90262163  0.60240575  0.73540903     0.86300
C1764       C  0.87193079  0.55581751  0.76182300    -0.53900
C1765       C  0.89562406  0.53008357  0.77390148     0.09200
C1766       C  0.94811754  0.55320252  0.75496213     0.20200
C1767       C  0.95056920  0.63233925  0.76035996    -0.54600
C1768       C  0.97439880  0.60675639  0.77261414     0.09300
C1769       C  0.91716602  0.58538573  0.69777133    -0.54200
C1770       C  0.94011755  0.55973229  0.70560318     0.09900
H1771       H  0.83458134  0.54446722  0.76974003     0.14400
H1772       H  0.96777065  0.53251678  0.76287716     0.00200
H1773       H  0.96419808  0.67048455  0.76748295     0.14700
H1774       H  0.90900936  0.59296276  0.66562788     0.14500
O1775       O  0.83822057  0.74863082  0.71463380    -0.82000
C1776       C  0.86509866  0.63843574  0.59667002     0.97400
O1777       O  0.89718316  0.66044246  0.62535247    -0.71100
O1778       O  0.90137920  0.74035945  0.61147070    -0.74700
Al1779     Al  0.89776688  0.70713350  0.66263625     1.49000
C1780       C  0.88039950  0.76491040  0.60313532     0.92600
O1781       O  0.77522659  0.69302938  0.60878554    -0.80900
O1782       O  0.76627303  0.61523976  0.71448107    -0.74500
Al1783     Al  0.80667446  0.71916772  0.66277288     1.90100
O1784       O  0.74596554  0.61704232  0.62967308    -0.73500
O1785       O  0.83958620  0.60267129  0.69376666    -0.73400
O1786       O  0.82099391  0.61572316  0.60699544    -0.79000
O1787       O  0.89907981  0.67401196  0.71366673    -0.77200
O1788       O  0.83364423  0.68127787  0.66364158    -1.13400
O1789       O  0.91100881  0.76106966  0.69737510    -0.72600
C1790       C  0.88427800  0.77283812  0.71801853     0.98100
C1791       C  0.75150776  0.64789826  0.60100458     0.94500
Al1792     Al  0.79621613  0.61703903  0.66185217     1.55600
O1793       O  0.85381067  0.76940456  0.62973284    -0.77200
C1794       C  0.87696347  0.62800990  0.71660316     0.98700
C1795       C  0.74193880  0.63765099  0.71752266     0.93600
O1796       O  0.75293582  0.67628574  0.69588307    -0.82500
N1797       N  0.83373052  0.95309714  0.80469719    -0.03600
C1798       C  0.87440260  0.49025513  0.80779664    -0.01100
C1799       C  0.88076744  0.50323170  0.84999797    -0.23900
C1800       C  0.83669383  0.47577056  0.86970944    -0.24100
C1801       C  0.81086133  0.95648176  0.83996493    -0.01200
H1802       H  0.90829946  0.53700345  0.86287304     0.12600
H1803       H  0.82840893  0.48636250  0.89954933     0.12700
N1804       N  0.82832670  0.90638428  0.79414818    -0.03600
C1805       C  0.78130615  0.86895571  0.79028409    -0.01100
C1806       C  0.77232950  0.85995872  0.74741439    -0.23900
C1807       C  0.81646818  0.88420752  0.72705940    -0.24100
C1808       C  0.85211179  0.90509672  0.75854731    -0.01200
H1809       H  0.74024697  0.83153260  0.73303670     0.12600
H1810       H  0.82230315  0.87466780  0.69576507     0.12700
N1811       N  0.60419814  0.95007891  0.79211652    -0.03600
C1812       C  0.60762409  0.97888317  0.75689083    -0.01100
C1813       C  0.62647044  0.46580369  0.72714415    -0.23900
C1814       C  0.65138991  0.44539728  0.74903593    -0.24100
C1815       C  0.64401039  0.94248238  0.79064841    -0.01200
H1816       H  0.63798647  0.48377472  0.69640352     0.12600
H1817       H  0.68368462  0.44558652  0.73729935     0.12700
N1818       N  0.55717765  0.90777288  0.80020488    -0.03600
C1819       C  0.51808723  0.91629666  0.80130297    -0.01100
C1820       C  0.00322491  0.91084223  0.84667296    -0.23900
C1821       C  0.02734786  0.88926442  0.86800308    -0.24100
C1822       C  0.55271637  0.87931659  0.83590287    -0.01200
H1823       H  0.97145045  0.91138675  0.85878653     0.12600
H1824       H  0.01580024  0.87114761  0.89867295     0.12700
N1825       N  0.60020856  0.68051795  0.79348028    -0.03600
C1826       C  0.60295533  0.65516319  0.75944936    -0.01100
C1827       C  0.62346892  0.68973762  0.72693088    -0.23900
C1828       C  0.64778680  0.73463181  0.74620749    -0.24100
C1829       C  0.63807938  0.72694700  0.78911612    -0.01200
H1830       H  0.63371923  0.68294523  0.69631878     0.12600
H1831       H  0.67716882  0.76573165  0.73146121     0.12700
N1832       N  0.55368742  0.67684680  0.80203760    -0.03600
C1833       C  0.55106682  0.70137338  0.83687061    -0.01100
C1834       C  0.03019112  0.66235253  0.86812231    -0.23900
C1835       C  0.00783078  0.61803501  0.84750821    -0.24100
C1836       C  0.01641592  0.62818668  0.80473401    -0.01200
H1837       H  0.02054120  0.66713027  0.89970663     0.12600
H1838       H  0.98250706  0.58386396  0.86185583     0.12700
C1839       C  0.75158629  0.75256257  0.85959450     0.86300
C1840       C  0.70403891  0.72283323  0.83407191    -0.53900
C1841       C  0.68016450  0.74817803  0.82115569     0.09200
C1842       C  0.70504871  0.80091490  0.83970657     0.20200
C1843       C  0.78262899  0.80013459  0.83383234    -0.54600
C1844       C  0.75871535  0.82601160  0.82203002     0.09300
C1845       C  0.73630464  0.76908170  0.89697151    -0.54200
C1846       C  0.71109640  0.79241202  0.88895070     0.09900
H1847       H  0.68955880  0.68417824  0.82915776     0.14400
H1848       H  0.68481359  0.82110279  0.83196862     0.00200
H1849       H  0.82015696  0.81198567  0.82590118     0.14700
H1850       H  0.74321110  0.76047600  0.92923045     0.14500
C1851       C  0.74722391  0.53291268  0.86112215     0.86300
C1852       C  0.78179071  0.51961972  0.83847626    -0.53900
C1853       C  0.77123297  0.97234917  0.83621101     0.09200
C1854       C  0.71500201  0.94093801  0.84627053     0.20200
C1855       C  0.70089434  0.51370181  0.83403805    -0.54600
C1856       C  0.68701933  0.96600328  0.82206954     0.09300
C1857       C  0.73082951  0.00065599  0.90007592    -0.54200
C1858       C  0.71244636  0.95317753  0.89322510     0.09900
H1859       H  0.82029441  0.54644555  0.83700546     0.14400
H1860       H  0.69946884  0.90130513  0.84033454     0.00200
H1861       H  0.68314179  0.53539474  0.82780616     0.14700
H1862       H  0.73388305  0.51397307  0.93100614     0.14500
C1863       C  0.96344223  0.74462632  0.86479033     0.86300
C1864       C  0.98001362  0.79175902  0.83959857    -0.53900
C1865       C  0.53151859  0.82285930  0.83403499     0.09200
C1866       C  0.55823422  0.79337729  0.85154784     0.20200
C1867       C  0.98008458  0.71414880  0.84077233    -0.54600
C1868       C  0.53115786  0.73828278  0.83422797     0.09300
C1869       C  0.49554431  0.76130409  0.90391235    -0.54200
C1870       C  0.54352958  0.78577291  0.89815326     0.09900
H1871       H  0.95524250  0.80680359  0.83718728     0.14400
H1872       H  0.59834884  0.81312596  0.84673589     0.00200
H1873       H  0.95554840  0.67519501  0.83724549     0.14700
H1874       H  0.48028377  0.75535095  0.93502994     0.14500
O1875       O  0.82017922  0.74454647  0.88441664    -0.82000
C1876       C  0.78388702  0.59136363  0.99649357     0.97400
O1877       O  0.75255790  0.58833422  0.96903732    -0.71100
O1878       O  0.75502451  0.66607210  0.98919499    -0.74700
Al1879     Al  0.75588916  0.64022444  0.93519220     1.49000
C1880       C  0.77910007  0.71023368  0.99898262     0.92600
O1881       O  0.88043980  0.73901889  0.98966973    -0.80900
O1882       O  0.88744987  0.67549850  0.88400276    -0.74500
Al1883     Al  0.84992349  0.73909731  0.93648590     1.90100
O1884       O  0.90692838  0.68968366  0.97045880    -0.73500
O1885       O  0.81060816  0.59240675  0.90172361    -0.73400
O1886       O  0.82849441  0.61381571  0.98816412    -0.79000
O1887       O  0.75146774  0.60830517  0.88294736    -0.77200
O1888       O  0.82050957  0.67466483  0.93435614    -1.13400
O1889       O  0.74661004  0.68671127  0.90161871    -0.72600
C1890       C  0.77443287  0.72428346  0.87950483     0.98100
C1891       C  0.90406135  0.71683186  0.99784436     0.94500
Al1892     Al  0.85560131  0.64458292  0.93549333     1.55600
O1893       O  0.80375490  0.74177365  0.97093360    -0.77200
C1894       C  0.77270263  0.58304887  0.87958594     0.98700
C1895       C  0.91291328  0.72151870  0.88145747     0.93600
O1896       O  0.90306571  0.74889731  0.90335222    -0.82500
loop_ 
_geom_bond_atom_site_label_1 
_geom_bond_atom_site_label_2 
_geom_bond_distance 
_geom_bond_site_symmetry_2 
_ccdc_geom_bond_type 
C1            C2   1.508       .  S
C1            C7   1.495       .  S
C1            C5   1.524       .  S
C1           C52   1.475       .  S
C2            H9   1.086       .  S
C2            C3   1.365       .  D
C3            C4   1.574       .  S
C3           C63   1.517       .  S
C4            C8   1.562       .  S
C4            C6   1.605       .  S
C4           H10   1.110       .  S
C5           H11   1.080       .  S
C5            C6   1.383       .  D
C6           C81   1.528       .  S
C7           H12   1.082   1_554  S
C7            C8   1.322       .  D
C8          C458   1.464   1_554  S
C13          C14   1.530       .  S
C13          C17   1.528   1_455  S
C13         C967   1.498   1_455  S
C13          C56   1.505       .  S
C14          H21   1.086       .  S
C14         C963   1.373   1_455  D
C15          C16   1.569       .  S
C15         C962   1.372       .  D
C15          C77   1.531       .  S
C16          C20   1.551       .  S
C16          C18   1.595       .  S
C16          H22   1.110       .  S
C17          H23   1.077   1_655  S
C17         C966   1.383       .  D
C18         C965   1.384       .  D
C18         C149   1.532       .  S
C19         C961   1.499       .  S
C19          H24   1.072   1_554  S
C19          C20   1.334       .  D
C20         C469   1.453   1_554  S
C25          C26   1.502       .  S
C25          C29   1.499       .  S
C25         C505   1.511       .  S
C25          C57   1.469       .  S
C26          H33   1.086       .  S
C26         C501   1.373       .  D
C27          C28   1.594       .  S
C27         C500   1.373   1_545  D
C27         C156   1.534       .  S
C28          C32   1.533       .  S
C28          C30   1.616       .  S
C28          H34   1.110       .  S
C29          H35   1.080       .  S
C29         C504   1.383       .  D
C30         C503   1.385   1_545  D
C30          C67   1.550       .  S
C31         C499   1.513   1_545  S
C31          H36   1.077   1_544  S
C31          C32   1.323       .  D
C32         C454   1.446   1_554  S
O37          C52   1.247       .  A
O37         Al45   1.875   1_554  S
C38         C448   1.438       .  S
C38          O48   1.251       .  A
C38          O39   1.259       .  A
O39         Al41   1.865       .  S
O40          C42   1.253       .  A
O40         Al41   1.920       .  S
Al41         O49   1.926   1_556  S
Al41         O51   1.886   1_556  S
Al41         O50   1.759       .  S
C42         C424   1.462       .  S
C42          O55   1.262       .  A
O43          C53   1.243       .  A
O43         Al45   1.866       .  S
O44          C57   1.262       .  A
O44         Al54   1.905   1_554  S
Al45         O58   1.837   1_556  S
Al45         O55   1.856       .  S
Al45         O50   1.774       .  S
O46          C53   1.266       .  A
O46         Al54   1.895       .  S
O47          C56   1.269       .  A
O47         Al54   1.894   1_554  S
O48         Al54   1.887       .  S
O49          C56   1.263       .  A
O50         Al54   1.750       .  S
O51          C52   1.276       .  A
C53         C436   1.442       .  S
C57          O58   1.261       .  A
N59          C63   1.378       .  A
N59          C60   1.398       .  A
N59          N66   1.464       .  S
C60         C101   1.518       .  S
C60          C61   1.383       .  A
C61          C62   1.371       .  A
C61          H64   1.083       .  S
C62          C63   1.395       .  A
C62          H65   1.083       .  S
N66          C70   1.380       .  A
N66          C67   1.399       .  A
C67         C542   1.396       .  A
C68          C69   1.375       .  A
C68         C541   1.398       .  A
C68          H71   1.083       .  S
C69         C544   1.382       .  A
C69          H72   1.073       .  S
C70         C590   1.514   1_545  S
C70         C543   1.382       .  A
N73          C77   1.371       .  A
N73          C74   1.371       .  A
N73          N80   1.435       .  S
C74        C1061   1.527       .  S
C74        C1023   1.380       .  A
C75          C76   1.379       .  A
C75        C1022   1.381       .  A
C75          H78   1.073   1_655  S
C76        C1025   1.388       .  A
C76          H79   1.083       .  S
C77        C1024   1.389       .  A
N80          C84   1.372       .  A
N80          C81   1.377       .  A
C81          C82   1.382       .  A
C82          C83   1.384       .  A
C82          H85   1.083       .  S
C83          C84   1.394       .  A
C83          H86   1.083       .  S
C84          C92   1.541       .  S
C87          C88   1.525       .  S
C87          C93   1.497       .  S
C87          C91   1.526       .  S
C87         C138   1.494       .  S
C88          H95   1.076       .  S
C88          C89   1.380       .  D
C89          C90   1.596       .  S
C89         C627   1.534       .  S
C90          C94   1.554       .  S
C90          C92   1.584       .  S
C90          H96   1.109       .  S
C91          H97   1.085       .  S
C91          C92   1.369       .  D
C93          H98   1.081       .  S
C93          C94   1.328       .  D
C94         C311   1.446       .  S
C99         C100   1.518       .  S
C99         C105   1.500       .  S
C99         C103   1.525       .  S
C99         C143   1.492       .  S
C100        H107   1.074       .  S
C100        C101   1.372       .  D
C101        C102   1.590       .  S
C102        C106   1.546       .  S
C102        C104   1.577       .  S
C102        H108   1.110       .  S
C103        H109   1.085       .  S
C103        C104   1.373       .  D
C104       C1094   1.538   1_455  S
C105        H110   1.073       .  S
C105        C106   1.333       .  D
C106        C300   1.439       .  S
C111        C112   1.548       .  S
C111        C117   1.479       .  S
C111        C115   1.530       .  S
C111        C142   1.491       .  S
C112        H119   1.078       .  S
C112        C113   1.382       .  D
C113        C114   1.567       .  S
C113       C1022   1.531   1_455  S
C114        C118   1.580       .  S
C114        C116   1.580       .  S
C114        H120   1.109       .  S
C115        H121   1.078       .  S
C115        C116   1.367       .  D
C116        C544   1.517       .  S
C117        H122   1.085       .  S
C117        C118   1.324       .  D
C118        C296   1.456       .  S
O123        C138   1.264       .  A
O123       Al131   1.897       .  S
C124        C266   1.481       .  S
C124        O134   1.260       .  A
C124        O125   1.268       .  A
O125       Al127   1.873       .  S
O126        C128   1.248       .  A
O126       Al127   1.889       .  S
Al127       O135   1.905       .  S
Al127       O137   1.900       .  S
Al127       O136   1.763       .  S
C128        C290   1.445       .  S
C128        O141   1.260       .  A
O129        C139   1.258       .  A
O129       Al131   1.917       .  S
O130        C143   1.268       .  A
O130       Al140   1.906       .  S
Al131       O144   1.891       .  S
Al131       O141   1.867       .  S
Al131       O136   1.752       .  S
O132        C139   1.250       .  A
O132       Al140   1.844       .  S
O133        C142   1.264       .  A
O133       Al140   1.888       .  S
O134       Al140   1.942       .  S
O135        C142   1.261       .  A
O136       Al140   1.761       .  S
O137        C138   1.264       .  A
C139        C278   1.441       .  S
C143        O144   1.264       .  A
N145        C149   1.382       .  A
N145        C146   1.368       .  A
N145        N152   1.442       .  S
C146       C1052   1.533       .  S
C146       C1095   1.393       .  A
C147       C1094   1.393       .  A
C147       C1096   1.382       .  A
C147        H150   1.083       .  S
C148        C149   1.382       .  A
C148       C1095   1.381       .  A
C148       H1099   1.083       .  S
H151       C1096   1.083       .  S
N152        C156   1.368       .  A
N152        C153   1.384       .  A
C153        C563   1.536   1_545  S
C153        C628   1.382       .  A
C154        C627   1.382       .  A
C154        C629   1.385       .  A
C154        H157   1.083       .  S
C155        C156   1.395       .  A
C155        C628   1.383       .  A
C155        H632   1.083       .  S
H158        C629   1.084       .  S
C159        C160   1.511       .  S
C159        C165   1.506       .  S
C159        C163   1.502       .  S
C159        C215   1.486       .  S
C160        H167   1.083       .  S
C160        C161   1.383       .  D
C161        C162   1.597       .  S
C161        C242   1.548       .  S
C162        C166   1.527       .  S
C162        C164   1.603       .  S
C162        H168   1.110       .  S
C163        H169   1.083       .  S
C163        C164   1.378       .  D
C164        C246   1.546       .  S
C165        H170   1.067       .  S
C165        C166   1.326       .  D
C166        C358   1.431       .  S
C171        C172   1.538       .  S
C171        C177   1.481       .  S
C171        C175   1.529       .  S
C171        C214   1.485       .  S
C172        H179   1.079       .  S
C172        C173   1.375       .  D
C173        C174   1.562       .  S
C173        C225   1.515       .  S
C174        C178   1.595       .  S
C174        C176   1.580       .  S
C174        H180   1.108       .  S
C175        H181   1.078       .  S
C175        C176   1.370       .  D
C176        C232   1.523       .  S
C177        H182   1.086       .  S
C177        C178   1.326       .  D
C178        C354   1.479       .  S
C183        C184   1.520       .  S
C183        C189   1.495       .  S
C183        C187   1.529       .  S
C183        C210   1.500       .  S
C184        H191   1.074       .  S
C184        C185   1.379       .  D
C185        C186   1.578       .  S
C185        C253   1.519       .  S
C186        C190   1.555       .  S
C186        C188   1.583       .  S
C186        H192   1.108       .  S
C187        H193   1.085       .  S
C187        C188   1.373       .  D
C188        C218   1.537       .  S
C189        H194   1.072       .  S
C189        C190   1.332       .  D
C190        C369   1.452       .  S
O195        C210   1.264       .  A
O195       Al677   1.901   1_545  S
C196        C348   1.480       .  S
C196        O206   1.254       .  A
C196        O197   1.273       .  A
O197      Al1147   1.900       .  S
O198        C200   1.251       .  A
O198       Al199   1.891       .  S
Al199       O209   1.910       .  S
Al199      O1145   1.889   1_455  S
Al199      O1155   1.903   1_455  S
Al199      O1156   1.765   1_455  S
C200        C336   1.438       .  S
C200        O213   1.255       .  A
O201        C211   1.261       .  A
O201      Al1151   1.934       .  S
O202        C215   1.264       .  A
O202       Al212   1.907       .  S
Al203       O669   1.902       .  S
Al203      O1149   1.932       .  S
Al203      O1164   1.880   1_455  S
Al203       O687   1.863       .  S
Al203      O1630   1.755   1_455  S
O204        C211   1.256       .  A
O204       Al212   1.858       .  S
O205        C214   1.264       .  A
O205       Al686   1.890   1_545  S
O206       Al686   1.917   1_545  S
O207        C214   1.257       .  A
O207      Al1147   1.895       .  S
O208      Al1147   1.759       .  S
O208      Al1625   1.756   1_545  S
O208       Al686   1.766   1_545  S
O209        C210   1.267       .  A
C211        C324   1.458       .  S
Al212       O679   1.893       .  S
Al212       O680   1.908       .  S
Al212       O682   1.769       .  S
O213       Al677   1.863   1_545  S
C215        O216   1.264       .  A
O216      Al1151   1.878       .  S
N217        C218   1.377       .  A
N217        C695   1.368   1_545  A
N217        N224   1.431       .  S
C218        C219   1.386   1_545  A
C219        C694   1.377       .  A
C219        H222   1.084   1_565  S
C220        C221   1.378       .  A
C220        C693   1.377       .  A
C220        H223   1.063       .  S
C221        C264   1.525       .  S
C221        N691   1.367       .  A
N224        C225   1.362       .  A
N224        C702   1.372   1_545  A
C225        C226   1.378       .  A
C226        C227   1.377       .  A
C226        H229   1.065       .  S
C227        C702   1.387   1_545  A
C227        H704   1.083       .  S
C228        C285   1.530       .  S
C228        N698   1.371       .  A
C228        C701   1.387       .  A
H230        C701   1.083       .  S
N231        C232   1.361       .  A
N231       C1183   1.386       .  A
N231       N1186   1.432       .  S
C232        C233   1.384       .  A
C233       C1182   1.382       .  A
C233        H236   1.066       .  S
C234        C235   1.390   1_655  A
C234       C1181   1.383       .  A
C234        H237   1.084       .  S
C235        C276   1.559       .  S
C235       N1179   1.388   1_455  A
N238        C239   1.353   1_655  A
N238       C1190   1.383       .  A
N238       N1179   1.432       .  S
C239        C261   1.510       .  S
C239        C240   1.384       .  A
C240       C1189   1.378       .  A
C240        H243   1.066       .  S
C241        C242   1.388       .  A
C241       C1188   1.380       .  A
C241        H244   1.083       .  S
C242       N1186   1.381       .  A
N245        C249   1.377       .  A
N245        C246   1.376       .  A
N245        N252   1.440       .  S
C246        C247   1.395       .  A
C247        C248   1.385       .  A
C247        H250   1.083       .  S
C248        C249   1.382       .  A
C248        H251   1.083       .  S
C249        C288   1.529       .  S
N252        C256   1.373       .  A
N252        C253   1.373       .  A
C253        C254   1.382       .  A
C254        C255   1.383       .  A
C254        H257   1.083       .  S
C255        C256   1.395       .  A
C255        H258   1.083       .  S
C256        C273   1.544       .  S
C259        C260   1.525       .  S
C259        C265   1.479       .  S
C259        C263   1.541       .  S
C259        C314   1.491       .  S
C260       H1215   1.076       .  S
C260        C261   1.371       .  D
C261        C262   1.561       .  S
C262        C266   1.595       .  S
C262        C264   1.578       .  S
C262        H268   1.108       .  S
C263        H743   1.081       .  S
C263        C264   1.378       .  D
C265        H270   1.085       .  S
C265        C266   1.328       .  D
H267       C1208   1.075       .  S
H269        C737   1.082   1_545  S
C271        C272   1.506       .  S
C271        C277   1.509       .  S
C271        C275   1.507       .  S
C271        C310   1.490       .  S
C272        H279   1.084       .  S
C272        C273   1.381       .  D
C273        C274   1.589       .  S
C274        C278   1.525       .  S
C274        C276   1.618       .  S
C274        H280   1.110       .  S
C275       H1229   1.082       .  S
C275        C276   1.382       .  D
C277        H282   1.070       .  S
C277        C278   1.333       .  D
H281       C1223   1.082       .  S
C283        C284   1.532       .  S
C283        C289   1.494       .  S
C283        C287   1.520       .  S
C283        C315   1.493       .  S
C284        H765   1.085       .  S
C284        C285   1.377       .  D
C285        C286   1.565       .  S
C286        C290   1.552       .  S
C286        C288   1.594       .  S
C286        H292   1.108       .  S
C287        H293   1.076       .  S
C287        C288   1.377       .  D
C289        H294   1.077       .  S
C289        C290   1.330       .  D
H291        C758   1.086   1_545  S
O295       C1258   1.262       .  A
O295       Al303   1.905       .  S
C296       O1254   1.250   1_455  A
C296        O771   1.266       .  A
O297        C770   1.268       .  A
O297       Al299   1.886   1_565  S
O298        C300   1.247       .  A
O298       Al299   1.876       .  S
Al299       O307   1.899       .  S
Al299       O309   1.881       .  S
Al299      O1256   1.763   1_455  S
C300        O313   1.258       .  A
O301        C785   1.252   1_545  A
O301       Al303   1.895       .  S
O302        C315   1.262       .  A
O302       Al312   1.913       .  S
Al303       O316   1.880   1_545  S
Al303      O1261   1.876       .  S
Al303       O308   1.759       .  S
O304        C311   1.260       .  A
O304       Al312   1.876       .  S
O305        C314   1.269       .  A
O305      Al1260   1.901   1_455  S
O306       C1244   1.250       .  A
O306       Al312   1.897       .  S
O307        C788   1.256   1_545  A
O308      Al1247   1.763       .  S
O308       Al786   1.773   1_545  S
O309        C310   1.265       .  A
C310       O1243   1.262   1_455  A
C311        O775   1.251       .  A
Al312      O1253   1.901       .  S
Al312       O782   1.770       .  S
O313      Al1251   1.874   1_455  S
C314        O781   1.256       .  A
C315        O790   1.268       .  A
O316        C789   1.267       .  A
C317        C318   1.519       .  S
C317        C323   1.497       .  S
C317        C321   1.524       .  S
C317        C368   1.498       .  S
C318        H325   1.073       .  S
C318        C319   1.378       .  D
C319        C320   1.583       .  S
C319       C1345   1.524       .  S
C320        C324   1.559       .  S
C320        C322   1.589       .  S
C320        H326   1.107       .  S
C321        H327   1.085       .  S
C321        C322   1.370       .  D
C322        C386   1.538       .  S
C323        H328   1.074       .  S
C323        C324   1.334       .  D
C329        C330   1.518       .  S
C329        C335   1.510       .  S
C329        C333   1.497       .  S
C329        C373   1.492       .  S
C330        H337   1.080       .  S
C330        C331   1.391       .  D
C331        C332   1.600       .  S
C331        C404   1.553       .  S
C332        C336   1.532       .  S
C332        C334   1.601       .  S
C332        H338   1.110       .  S
C333        H339   1.085       .  S
C333        C334   1.373       .  D
C334        C864   1.542   1_545  S
C335        H340   1.072       .  S
C335        C336   1.329       .  D
C341        C342   1.538       .  S
C341        C347   1.482       .  S
C341        C345   1.530       .  S
C341        C372   1.487       .  S
C342        H349   1.079       .  S
C342        C343   1.376       .  D
C343        C344   1.567       .  S
C343        C376   1.518   1_545  S
C344        C348   1.596       .  S
C344        C346   1.576       .  S
C344        H350   1.108       .  S
C345        H351   1.078       .  S
C345        C346   1.370       .  D
C346        C414   1.520       .  S
C347        H352   1.087       .  S
C347        C348   1.324       .  D
O353        C368   1.264       .  A
O353       Al361   1.899       .  S
C354        O364   1.256       .  A
C354        O355   1.271       .  A
O355       Al357   1.892       .  S
O356        C358   1.247       .  A
O356       Al357   1.871       .  S
Al357       O365   1.902       .  S
Al357       O367   1.901       .  S
Al357       O366   1.763       .  S
C358        O371   1.255       .  A
O359        C369   1.259       .  A
O359       Al361   1.928       .  S
O360        C373   1.265       .  A
O360       Al370   1.905       .  S
Al361       O374   1.884       .  S
Al361       O371   1.863       .  S
Al361       O366   1.755       .  S
O362        C369   1.252       .  A
O362       Al370   1.851       .  S
O363        C372   1.263       .  A
O363       Al370   1.879       .  S
O364       Al370   1.924       .  S
O365        C372   1.259       .  A
O366       Al370   1.769       .  S
O367        C368   1.264       .  A
C373        O374   1.266       .  A
N375        C379   1.374       .  A
N375        C850   1.367       .  A
N375        N382   1.434       .  S
C376        N849   1.362       .  A
C376        C377   1.380       .  A
C377        C378   1.378       .  A
C377        H380   1.066   1_565  S
C378        C853   1.387       .  A
C378        H381   1.083       .  S
C379        C431   1.534       .  S
C379        C852   1.387       .  A
N382        C386   1.376       .  A
N382        C383   1.372       .  A
C383        C422   1.534       .  S
C383        C384   1.381       .  A
C384        C385   1.381       .  A
C384        H387   1.070       .  S
C385        C386   1.390       .  A
C385        H388   1.083       .  S
N389        C393   1.372       .  A
N389        C390   1.381       .  A
N389        N396   1.443       .  S
C390        C808   1.553       .  S
C390        C865   1.395       .  A
C391        C392   1.385       .  A
C391        C864   1.396       .  A
C391        H394   1.083       .  S
C392        C867   1.381       .  A
C392        H395   1.083       .  S
C393        C434   1.519       .  S
C393        C866   1.382       .  A
N396        C400   1.379       .  A
N396        C397   1.370       .  A
C397       C1267   1.511   1_455  S
C397       C1346   1.381   1_455  A
C398        C399   1.385       .  A
C398       C1345   1.382       .  A
C398        H401   1.082       .  S
C399       C1348   1.394       .  A
C399        H402   1.083       .  S
C400        C443   1.549       .  S
C400       C1347   1.393       .  A
N403        C407   1.376       .  A
N403        C404   1.400       .  A
N403        N410   1.465       .  S
C404        C405   1.394       .  A
C405        C406   1.367       .  A
C405        H408   1.081       .  S
C406        C407   1.379       .  A
C406        H409   1.069       .  S
C407        C419   1.497       .  S
N410        C411   1.403       .  A
N410       C1362   1.378       .  A
C411        C446   1.528       .  S
C411       C1360   1.382       .  A
C412        C413   1.380       .  A
C412       C1359   1.390       .  A
C412        H415   1.083       .  S
C413        C414   1.382       .  A
C413        H416   1.065       .  S
C414       N1358   1.362       .  A
C417        C418   1.524       .  S
C417        C423   1.477       .  S
C417        C421   1.542       .  S
C417        C468   1.481       .  S
C418        H425   1.079       .  S
C418        C419   1.360       .  D
C419        C420   1.564       .  S
C420        C424   1.581       .  S
C420        C422   1.582       .  S
C420        H426   1.109       .  S
C421        H427   1.079       .  S
C421        C422   1.382       .  D
C423        H428   1.083       .  S
C423        C424   1.326       .  D
C429        C430   1.536       .  S
C429        C433   1.526       .  S
C429        C909   1.494       .  S
C429        C472   1.503       .  S
C430        H437   1.085       .  S
C430        C905   1.375   1_545  D
C431        C432   1.569       .  S
C431        C904   1.377       .  D
C432        C436   1.550       .  S
C432        C434   1.587       .  S
C432        H438   1.109       .  S
C433        H439   1.074       .  S
C433        C908   1.386   1_545  D
C434        C907   1.380       .  D
C435        C903   1.496       .  S
C435        H914   1.073       .  S
C435        C436   1.327       .  D
H440        C909   1.076       .  S
C441        C442   1.506       .  S
C441        C445   1.514       .  S
C441       C1395   1.505       .  S
C441        C473   1.489       .  S
C442        H449   1.084       .  S
C442       C1391   1.379       .  D
C443        C444   1.573       .  S
C443       C1390   1.381   1_455  D
C444        C448   1.545       .  S
C444        C446   1.601       .  S
C444        H450   1.110       .  S
C445        H451   1.082       .  S
C445       C1394   1.386       .  D
C446       C1393   1.377   1_455  D
C447       C1389   1.494       .  S
C447        H452   1.072       .  S
C447        C448   1.329   1_655  D
O453        C468   1.256       .  A
O453       Al461   1.894       .  S
C454        O464   1.252       .  A
C454        O455   1.257       .  A
O455       Al457   1.864       .  S
O456        C458   1.252       .  A
O456       Al457   1.918       .  S
Al457       O465   1.927       .  S
Al457       O467   1.888       .  S
Al457       O466   1.769       .  S
C458        O471   1.264       .  A
O459        C469   1.249       .  A
O459       Al461   1.891       .  S
O460        C473   1.261       .  A
O460       Al470   1.910       .  S
Al461       O474   1.877       .  S
Al461       O471   1.872       .  S
Al461       O466   1.765       .  S
O462        C469   1.263       .  A
O462       Al470   1.890       .  S
O463        C472   1.269       .  A
O463       Al470   1.891       .  S
O464       Al470   1.896       .  S
O465        C472   1.264       .  A
O466       Al470   1.754       .  S
O467        C468   1.270       .  A
C473        O474   1.265       .  A
C475        C476   1.511       .  S
C475        C481   1.492       .  S
C475        C479   1.522       .  S
C475        C526   1.470       .  S
C476        H483   1.086       .  S
C476        C477   1.366       .  D
C477        C478   1.574       .  S
C477        C537   1.519       .  S
C478        C482   1.561       .  S
C478        C480   1.607       .  S
C478        H484   1.110       .  S
C479        H485   1.080       .  S
C479        C480   1.382       .  D
C480        C555   1.528       .  S
C481        H486   1.086   1_554  S
C481        C482   1.322       .  D
C482        C932   1.459   1_554  S
C487        C488   1.528       .  S
C487       C1441   1.504   1_455  S
C487        C491   1.527   1_455  S
C487        C530   1.507       .  S
C488        H495   1.086       .  S
C488       C1437   1.369   1_455  D
C489        C490   1.566       .  S
C489       C1436   1.371       .  D
C489        C551   1.525       .  S
C490        C494   1.553       .  S
C490        C492   1.594       .  S
C490        H496   1.110       .  S
C491        H497   1.076   1_655  S
C491       C1440   1.385       .  D
C492       C1439   1.384       .  D
C492        C623   1.530       .  S
C493       C1435   1.503       .  S
C493        H498   1.071   1_554  S
C493        C494   1.336       .  D
C494        C943   1.462   1_554  S
C499        C500   1.502       .  S
C499        C503   1.501       .  S
C499        C531   1.472       .  S
C500        H507   1.086       .  S
C501        C502   1.600       .  S
C501        C630   1.543       .  S
C502        C506   1.533       .  S
C502        C504   1.623       .  S
C502        H508   1.110       .  S
C503        H509   1.080       .  S
C504        C541   1.554       .  S
C505        H510   1.074   1_554  S
C505        C506   1.322       .  D
C506        C928   1.448   1_554  S
O511        C526   1.247       .  A
O511       Al519   1.873   1_554  S
C512        C922   1.429       .  S
C512        O522   1.253       .  A
C512        O513   1.253       .  A
O513       Al515   1.852       .  S
O514        C516   1.254       .  A
O514       Al515   1.922       .  S
Al515       O523   1.927   1_556  S
Al515       O525   1.872   1_556  S
Al515       O524   1.761       .  S
C516        C898   1.466       .  S
C516        O529   1.263       .  A
O517        C527   1.240       .  A
O517       Al519   1.854       .  S
O518        C531   1.264       .  A
O518       Al528   1.910   1_554  S
Al519       O532   1.839   1_556  S
Al519       O529   1.866       .  S
Al519       O524   1.776       .  S
O520        C527   1.265       .  A
O520       Al528   1.894       .  S
O521        C530   1.269       .  A
O521       Al528   1.893   1_554  S
O522       Al528   1.889       .  S
O523        C530   1.264       .  A
O524       Al528   1.751       .  S
O525        C526   1.273       .  A
C527        C910   1.436       .  S
C531        O532   1.261       .  A
N533        C537   1.379       .  A
N533        C534   1.398       .  A
N533        N540   1.464       .  S
C534        C575   1.518       .  S
C534        C535   1.383       .  A
C535        C536   1.371       .  A
C535        H538   1.083       .  S
C536        C537   1.395       .  A
C536        H539   1.084       .  S
N540        C544   1.383       .  A
N540        C541   1.399       .  A
C542        C543   1.374       .  A
C542        H545   1.083       .  S
C543        H546   1.071   1_545  S
N547        C551   1.369       .  A
N547        C548   1.373       .  A
N547        N554   1.436       .  S
C548       C1535   1.530       .  S
C548       C1497   1.380       .  A
C549       C1496   1.381       .  A
C549        C550   1.379       .  A
C549        H552   1.071   1_655  S
C550       C1499   1.389       .  A
C550        H553   1.083       .  S
C551       C1498   1.389       .  A
N554        C558   1.372       .  A
N554        C555   1.379       .  A
C555        C556   1.381       .  A
C556        C557   1.383       .  A
C556        H559   1.083       .  S
C557        C558   1.395       .  A
C557        H560   1.083       .  S
C558        C566   1.544       .  S
C561        C562   1.528       .  S
C561        C567   1.497       .  S
C561        C565   1.527       .  S
C561        C612   1.495       .  S
C562        H569   1.077       .  S
C562        C563   1.382       .  D
C563        C564   1.595       .  S
C564        C568   1.551       .  S
C564        C566   1.587       .  S
C564        H570   1.109       .  S
C565        H571   1.086       .  S
C565        C566   1.370       .  D
C567        H572   1.081       .  S
C567        C568   1.327       .  D
C568        C785   1.442       .  S
C573        C574   1.518       .  S
C573        C579   1.503       .  S
C573        C577   1.522       .  S
C573        C617   1.492       .  S
C574        H581   1.074       .  S
C574        C575   1.373       .  D
C575        C576   1.590       .  S
C576        C580   1.544       .  S
C576        C578   1.575       .  S
C576        H582   1.110       .  S
C577        H583   1.085       .  S
C577        C578   1.371       .  D
C578       C1568   1.535   1_455  S
C579        H584   1.075       .  S
C579        C580   1.334       .  D
C580        C774   1.438       .  S
C585        C586   1.545       .  S
C585        C591   1.480       .  S
C585        C589   1.530       .  S
C585        C616   1.486       .  S
C586        H593   1.079       .  S
C586        C587   1.380       .  D
C587        C588   1.570       .  S
C587       C1496   1.531   1_455  S
C588        C592   1.585       .  S
C588        C590   1.580       .  S
C588        H594   1.109       .  S
C589        H595   1.079       .  S
C589        C590   1.366       .  D
C591        H596   1.085       .  S
C591        C592   1.323       .  D
C592        C770   1.464       .  S
O597        C612   1.264       .  A
O597       Al605   1.898       .  S
C598        C740   1.482       .  S
C598        O608   1.261       .  A
C598        O599   1.268       .  A
O599       Al601   1.875       .  S
O600        C602   1.247       .  A
O600       Al601   1.883       .  S
Al601       O609   1.896       .  S
Al601       O611   1.900       .  S
Al601       O610   1.761       .  S
C602        C764   1.444       .  S
C602        O615   1.261       .  A
O603        C613   1.259       .  A
O603       Al605   1.914       .  S
O604        C617   1.269       .  A
O604       Al614   1.906       .  S
Al605       O618   1.891       .  S
Al605       O615   1.873       .  S
Al605       O610   1.750       .  S
O606        C613   1.250       .  A
O606       Al614   1.839       .  S
O607        C616   1.264       .  A
O607       Al614   1.887       .  S
O608       Al614   1.945       .  S
O609        C616   1.259       .  A
O610       Al614   1.760       .  S
O611        C612   1.265       .  A
C613        C752   1.436       .  S
C617        O618   1.263       .  A
N619        C623   1.379       .  A
N619        C620   1.372       .  A
N619        N626   1.442       .  S
C620       C1526   1.538       .  S
C620       C1569   1.393       .  A
C621       C1568   1.394       .  A
C621       C1570   1.382       .  A
C621        H624   1.083       .  S
C622       C1569   1.382       .  A
C622        C623   1.382       .  A
C622       H1573   1.083       .  S
H625       C1570   1.083       .  S
N626        C630   1.373       .  A
N626        C627   1.381       .  A
C628        H631   1.083   1_545  S
C629        C630   1.396       .  A
C633        C634   1.516       .  S
C633        C639   1.508       .  S
C633        C637   1.502       .  S
C633        C689   1.490       .  S
C634        H641   1.082       .  S
C634        C635   1.387       .  D
C635        C636   1.598       .  S
C635        C716   1.555       .  S
C636        C640   1.525       .  S
C636        C638   1.600       .  S
C636        H642   1.110       .  S
C637        H643   1.084       .  S
C637        C638   1.376       .  D
C638        C720   1.544       .  S
C639        H644   1.068       .  S
C639        C640   1.327       .  D
C640        C832   1.429       .  S
C645        C646   1.538       .  S
C645        C651   1.479       .  S
C645        C649   1.533       .  S
C645        C688   1.491       .  S
C646        H653   1.078       .  S
C646        C647   1.377       .  D
C647        C648   1.560       .  S
C647        C699   1.514       .  S
C648        C652   1.592       .  S
C648        C650   1.576       .  S
C648        H654   1.108       .  S
C649        H655   1.077       .  S
C649        C650   1.372       .  D
C650        C706   1.523       .  S
C651        H656   1.086       .  S
C651        C652   1.326       .  D
C652        C828   1.474       .  S
C657        C658   1.520       .  S
C657        C663   1.497       .  S
C657        C661   1.531       .  S
C657        C684   1.503       .  S
C658        H665   1.074       .  S
C658        C659   1.381       .  D
C659        C660   1.576       .  S
C659        C727   1.517       .  S
C660        C664   1.552       .  S
C660        C662   1.581       .  S
C660        H666   1.108       .  S
C661        H667   1.085       .  S
C661        C662   1.372       .  D
C662        C692   1.536       .  S
C663        H668   1.075       .  S
C663        C664   1.333       .  D
C664        C843   1.448       .  S
O669        C684   1.265       .  A
C670        C822   1.474       .  S
C670        O680   1.252       .  A
C670        O671   1.272       .  A
O671      Al1621   1.896       .  S
O672        C674   1.248       .  A
O672       Al673   1.875       .  S
Al673      O1619   1.894   1_455  S
Al673      O1629   1.894   1_455  S
Al673       O683   1.916       .  S
Al673      O1630   1.758   1_455  S
C674        C810   1.430       .  S
C674        O687   1.254       .  A
O675        C685   1.261       .  A
O675      Al1625   1.933       .  S
O676        C689   1.266       .  A
O676       Al686   1.911       .  S
Al677      O1623   1.925       .  S
Al677      O1638   1.882   1_455  S
Al677      O1156   1.757   1_465  S
O678        C685   1.256       .  A
O678       Al686   1.858       .  S
O679        C688   1.264       .  A
O681        C688   1.258       .  A
O681      Al1621   1.902       .  S
O682      Al1621   1.758       .  S
O682      Al1151   1.757       .  S
O683        C684   1.268       .  A
C685        C798   1.459       .  S
C689        O690   1.264       .  A
O690      Al1625   1.877       .  S
N691        C692   1.377       .  A
N691        N698   1.431       .  S
C692        C693   1.387       .  A
C693        H696   1.083       .  S
C694        C695   1.380       .  A
C694        H697   1.056       .  S
C695        C738   1.527       .  S
N698        C699   1.360       .  A
C699        C700   1.380       .  A
C700        C701   1.377       .  A
C700        H703   1.066       .  S
C702        C759   1.533       .  S
N705       C1657   1.387       .  A
N705        C706   1.362       .  A
N705       N1660   1.435       .  S
C706        C707   1.384       .  A
C707       C1656   1.382       .  A
C707        H710   1.067       .  S
C708       C1655   1.381       .  A
C708        C709   1.390   1_655  A
C708        H711   1.083       .  S
C709        C750   1.565       .  S
C709       N1653   1.391   1_455  A
N712       C1664   1.385       .  A
N712        C713   1.352   1_655  A
N712       N1653   1.435       .  S
C713        C735   1.512       .  S
C713        C714   1.386       .  A
C714       C1663   1.380       .  A
C714        H717   1.061       .  S
C715       C1662   1.378       .  A
C715        C716   1.389       .  A
C715        H718   1.083       .  S
C716       N1660   1.384       .  A
N719        C723   1.377       .  A
N719        C720   1.375       .  A
N719        N726   1.440       .  S
C720        C721   1.395       .  A
C721        C722   1.385       .  A
C721        H724   1.083       .  S
C722        C723   1.382       .  A
C722        H725   1.083       .  S
C723        C762   1.527       .  S
N726        C730   1.371       .  A
N726        C727   1.373       .  A
C727        C728   1.381       .  A
C728        C729   1.383       .  A
C728        H731   1.083       .  S
C729        C730   1.396       .  A
C729        H732   1.083       .  S
C730        C747   1.542       .  S
C733        C734   1.529       .  S
C733        C739   1.480       .  S
C733        C737   1.542       .  S
C733        C788   1.496       .  S
C734       H1689   1.076       .  S
C734        C735   1.375       .  D
C735        C736   1.560       .  S
C736        C740   1.595       .  S
C736        C738   1.579       .  S
C736        H742   1.108       .  S
C737        C738   1.377       .  D
C739        H744   1.086       .  S
C739        C740   1.327       .  D
H741       C1682   1.077       .  S
C745        C746   1.507       .  S
C745        C751   1.507       .  S
C745        C749   1.511       .  S
C745        C784   1.489       .  S
C746        H753   1.085       .  S
C746        C747   1.379       .  D
C747        C748   1.586       .  S
C748        C752   1.524       .  S
C748        C750   1.619       .  S
C748        H754   1.110       .  S
C749       H1703   1.081       .  S
C749        C750   1.386       .  D
C751        H756   1.072       .  S
C751        C752   1.332       .  D
H755       C1697   1.082       .  S
C757        C758   1.535       .  S
C757        C763   1.495       .  S
C757        C761   1.518       .  S
C757        C789   1.496       .  S
C758        C759   1.377       .  D
C759        C760   1.567       .  S
C760        C764   1.551       .  S
C760        C762   1.592       .  S
C760        H766   1.108       .  S
C761        H767   1.075       .  S
C761        C762   1.379       .  D
C763        H768   1.077       .  S
C763        C764   1.330       .  D
O769       C1732   1.262       .  A
O769       Al777   1.902       .  S
C770       O1728   1.251   1_455  A
O771       Al773   1.875       .  S
O772        C774   1.247       .  A
O772       Al773   1.878       .  S
Al773       O781   1.895       .  S
Al773       O783   1.877       .  S
Al773      O1730   1.764   1_455  S
C774        O787   1.257       .  A
O775       Al777   1.893       .  S
O776        C789   1.265       .  A
O776       Al786   1.922       .  S
Al777       O790   1.884       .  S
Al777      O1735   1.877       .  S
Al777       O782   1.758       .  S
O778        C785   1.257       .  A
O778       Al786   1.864       .  S
O779        C788   1.269       .  A
O779      Al1734   1.902   1_455  S
O780       C1718   1.251       .  A
O780       Al786   1.902       .  S
O782      Al1721   1.764       .  S
O783        C784   1.265       .  A
C784       O1717   1.262   1_455  A
Al786      O1727   1.896       .  S
O787      Al1725   1.874   1_455  S
C791        C792   1.522       .  S
C791        C797   1.498       .  S
C791        C795   1.522       .  S
C791        C842   1.499       .  S
C792        H799   1.075       .  S
C792        C793   1.379       .  D
C793        C794   1.583       .  S
C793       C1819   1.521       .  S
C794        C798   1.556       .  S
C794        C796   1.590       .  S
C794        H800   1.107       .  S
C795        H801   1.083       .  S
C795        C796   1.374       .  D
C796        C860   1.543       .  S
C797        H802   1.073       .  S
C797        C798   1.332       .  D
C803        C804   1.514       .  S
C803        C809   1.507       .  S
C803        C807   1.507       .  S
C803        C847   1.493       .  S
C804        H811   1.084       .  S
C804        C805   1.380       .  D
C805        C806   1.593       .  S
C805        C878   1.543       .  S
C806        C810   1.525       .  S
C806        C808   1.603       .  S
C806        H812   1.110       .  S
C807        H813   1.083       .  S
C807        C808   1.384       .  D
C809        H814   1.067       .  S
C809        C810   1.329       .  D
C815        C816   1.536       .  S
C815        C821   1.480       .  S
C815        C819   1.536       .  S
C815        C846   1.485       .  S
C816        H823   1.078       .  S
C816        C817   1.374       .  D
C817        C818   1.570       .  S
C817        C850   1.521       .  S
C818        C822   1.592       .  S
C818        C820   1.575       .  S
C818        H824   1.107       .  S
C819        H825   1.079       .  S
C819        C820   1.374       .  D
C820        C888   1.525       .  S
C821        H826   1.087       .  S
C821        C822   1.323       .  D
O827        C842   1.267       .  A
O827       Al835   1.908       .  S
C828        O838   1.254       .  A
C828        O829   1.269       .  A
O829       Al831   1.885       .  S
O830        C832   1.246       .  A
O830       Al831   1.869       .  S
Al831       O839   1.897       .  S
Al831       O841   1.893       .  S
Al831       O840   1.765       .  S
C832        O845   1.255       .  A
O833        C843   1.259       .  A
O833       Al835   1.925       .  S
O834        C847   1.265       .  A
O834       Al844   1.913       .  S
Al835       O848   1.888       .  S
Al835       O845   1.868       .  S
Al835       O840   1.754       .  S
O836        C843   1.252       .  A
O836       Al844   1.844       .  S
O837        C846   1.264       .  A
O837       Al844   1.880       .  S
O838       Al844   1.920       .  S
O839        C846   1.257       .  A
O840       Al844   1.770       .  S
O841        C842   1.263       .  A
C847        O848   1.266       .  A
N849        C853   1.378       .  A
N849        N856   1.434       .  S
C850        C851   1.382       .  A
C851        C852   1.375       .  A
C851        H854   1.067       .  S
C852        H855   1.084       .  S
C853        C905   1.539       .  S
N856        C860   1.380       .  A
N856        C857   1.367       .  A
C857        C896   1.524       .  S
C857        C858   1.382       .  A
C858        C859   1.378       .  A
C858        H861   1.068       .  S
C859        C860   1.389       .  A
C859        H862   1.084       .  S
N863        C867   1.374       .  A
N863        C864   1.374       .  A
N863        N870   1.440       .  S
C865        C866   1.384       .  A
C865        H868   1.084       .  S
C866        H869   1.083       .  S
C867        C908   1.525       .  S
N870        C874   1.378       .  A
N870        C871   1.371       .  A
C871       C1741   1.516   1_455  S
C871       C1820   1.381       .  A
C872       C1819   1.381       .  A
C872        C873   1.383       .  A
C872        H875   1.083       .  S
C873       C1822   1.394       .  A
C873        H876   1.083       .  S
C874        C917   1.553       .  S
C874       C1821   1.396       .  A
N877        C881   1.358       .  A
N877        C878   1.378       .  A
N877        N884   1.434       .  S
C878        C879   1.390       .  A
C879        C880   1.381       .  A
C879        H882   1.083       .  S
C880        C881   1.381       .  A
C880        H883   1.068       .  S
C881        C893   1.518       .  S
N884       C1836   1.362       .  A
N884        C885   1.382       .  A
C885        C920   1.552       .  S
C885       C1834   1.392       .  A
C886       C1833   1.391       .  A
C886        C887   1.382       .  A
C886        H889   1.083       .  S
C887        C888   1.380       .  A
C887        H890   1.067       .  S
C888       N1832   1.365       .  A
C891        C892   1.538       .  S
C891        C897   1.478       .  S
C891        C895   1.540       .  S
C891        C942   1.496       .  S
C892        H899   1.078       .  S
C892        C893   1.378       .  D
C893        C894   1.559       .  S
C894        C898   1.586       .  S
C894        C896   1.575       .  S
C894        H900   1.108       .  S
C895        H901   1.080       .  S
C895        C896   1.378       .  D
C897        H902   1.087       .  S
C897        C898   1.323       .  D
C903        C904   1.527       .  S
C903        C907   1.520       .  S
C903        C946   1.492       .  S
C904        H911   1.084       .  S
C905        C906   1.569       .  S
C906        C910   1.550       .  S
C906        C908   1.583       .  S
C906        H912   1.108       .  S
C907        H913   1.077       .  S
C909        C910   1.328   1_545  D
C915        C916   1.515       .  S
C915       C1869   1.507       .  S
C915        C919   1.514       .  S
C915        C947   1.494       .  S
C916        H923   1.084       .  S
C916       C1865   1.385       .  D
C917        C918   1.595       .  S
C917       C1864   1.383   1_455  D
C918        C922   1.526       .  S
C918        C920   1.610       .  S
C918        H924   1.110       .  S
C919        H925   1.084       .  S
C919       C1868   1.380       .  D
C920       C1867   1.380   1_455  D
C921       C1863   1.507       .  S
C921        H926   1.074       .  S
C921        C922   1.328   1_655  D
O927        C942   1.261       .  A
O927       Al935   1.909       .  S
C928        O938   1.253       .  A
C928        O929   1.257       .  A
O929       Al931   1.864       .  S
O930        C932   1.251       .  A
O930       Al931   1.911       .  S
Al931       O939   1.906       .  S
Al931       O941   1.896       .  S
Al931       O940   1.775       .  S
C932        O945   1.263       .  A
O933        C943   1.253       .  A
O933       Al935   1.909       .  S
O934        C947   1.263       .  A
O934       Al944   1.913       .  S
Al935       O948   1.881       .  S
Al935       O945   1.864       .  S
Al935       O940   1.759       .  S
O936        C943   1.263       .  A
O936       Al944   1.894       .  S
O937        C946   1.270       .  A
O937       Al944   1.891       .  S
O938       Al944   1.900       .  S
O939        C946   1.260       .  A
O940       Al944   1.755       .  S
O941        C942   1.269       .  A
C947        O948   1.264       .  A
C949        C950   1.510       .  S
C949        C955   1.494       .  S
C949        C953   1.521       .  S
C949       C1000   1.469       .  S
C950        H957   1.087       .  S
C950        C951   1.365       .  D
C951        C952   1.576       .  S
C951       C1011   1.519       .  S
C952        C956   1.563       .  S
C952        C954   1.605       .  S
C952        H958   1.110       .  S
C953        H959   1.080       .  S
C953        C954   1.381       .  D
C954       C1029   1.525       .  S
C955        H960   1.085   1_554  S
C955        C956   1.320       .  D
C956       C1406   1.461   1_554  S
C961        C962   1.532       .  S
C961        C965   1.528       .  S
C961       C1004   1.507       .  S
C962        H969   1.086       .  S
C963        C964   1.567       .  S
C963       C1025   1.528       .  S
C964        C968   1.551       .  S
C964        C966   1.593       .  S
C964        H970   1.110       .  S
C965        H971   1.077       .  S
C966       C1097   1.531       .  S
C967        H972   1.071   1_554  S
C967        C968   1.333       .  D
C968       C1417   1.452   1_554  S
C973        C974   1.504       .  S
C973       C1453   1.511       .  S
C973        C977   1.506       .  S
C973       C1005   1.476       .  S
C974        H981   1.086       .  S
C974       C1449   1.373       .  D
C975        C976   1.596       .  S
C975       C1448   1.374   1_545  D
C975       C1104   1.539       .  S
C976        C980   1.532       .  S
C976        C978   1.618       .  S
C976        H982   1.110       .  S
C977        H983   1.081       .  S
C977       C1452   1.387       .  D
C978       C1451   1.385   1_545  D
C978       C1015   1.551       .  S
C979       C1447   1.510   1_545  S
C979        H984   1.077   1_544  S
C979        C980   1.323       .  D
C980       C1402   1.444   1_554  S
O985       C1000   1.248       .  A
O985       Al993   1.874   1_554  S
C986       C1396   1.429       .  S
C986        O996   1.252       .  A
C986        O987   1.255       .  A
O987       Al989   1.856       .  S
O988        C990   1.254       .  A
O988       Al989   1.925       .  S
Al989       O997   1.929   1_556  S
Al989       O999   1.874   1_556  S
Al989       O998   1.762       .  S
C990       C1372   1.468       .  S
C990       O1003   1.263       .  A
O991       C1001   1.242       .  A
O991       Al993   1.862       .  S
O992       C1005   1.262       .  A
O992      Al1002   1.908   1_554  S
Al993      O1006   1.851   1_556  S
Al993      O1003   1.867       .  S
Al993       O998   1.775       .  S
O994       C1001   1.265       .  A
O994      Al1002   1.895       .  S
O995       C1004   1.269       .  A
O995      Al1002   1.892   1_554  S
O996      Al1002   1.883       .  S
O997       C1004   1.264       .  A
O998      Al1002   1.749       .  S
O999       C1000   1.273       .  A
C1001      C1384   1.440       .  S
C1005      O1006   1.263       .  A
N1007      C1011   1.379       .  A
N1007      C1008   1.398       .  A
N1007      N1014   1.464       .  S
C1008      C1049   1.516       .  S
C1008      C1009   1.382       .  A
C1009      C1010   1.370       .  A
C1009      H1012   1.083       .  S
C1010      C1011   1.395       .  A
C1010      H1013   1.083       .  S
N1014      C1018   1.382       .  A
N1014      C1015   1.399       .  A
C1015      C1490   1.397       .  A
C1016      C1489   1.396       .  A
C1016      C1017   1.373       .  A
C1016      H1019   1.083       .  S
C1017      C1492   1.381       .  A
C1017      H1020   1.071       .  S
C1018      C1538   1.515   1_545  S
C1018      C1491   1.382       .  A
N1021      C1025   1.370       .  A
N1021      C1022   1.373       .  A
N1021      N1028   1.439       .  S
C1023      C1024   1.379       .  A
C1023      H1026   1.072       .  S
C1024      H1027   1.083       .  S
N1028      C1032   1.375       .  A
N1028      C1029   1.379       .  A
C1029      C1030   1.381       .  A
C1030      C1031   1.382       .  A
C1030      H1033   1.083       .  S
C1031      C1032   1.395       .  A
C1031      H1034   1.083       .  S
C1032      C1040   1.547       .  S
C1035      C1036   1.525       .  S
C1035      C1041   1.499       .  S
C1035      C1039   1.531       .  S
C1035      C1086   1.496       .  S
C1036      H1043   1.077       .  S
C1036      C1037   1.380       .  D
C1037      C1038   1.596       .  S
C1037      C1575   1.534       .  S
C1038      C1042   1.549       .  S
C1038      C1040   1.585       .  S
C1038      H1044   1.109       .  S
C1039      H1045   1.086       .  S
C1039      C1040   1.372       .  D
C1041      H1046   1.079       .  S
C1041      C1042   1.328       .  D
C1042      C1259   1.443       .  S
C1047      C1048   1.520       .  S
C1047      C1053   1.502       .  S
C1047      C1051   1.522       .  S
C1047      C1091   1.492       .  S
C1048      H1055   1.075       .  S
C1048      C1049   1.373       .  D
C1049      C1050   1.589       .  S
C1050      C1054   1.542       .  S
C1050      C1052   1.573       .  S
C1050      H1056   1.110       .  S
C1051      H1057   1.085       .  S
C1051      C1052   1.373       .  D
C1053      H1058   1.072       .  S
C1053      C1054   1.333       .  D
C1054      C1248   1.437       .  S
C1059      C1060   1.541       .  S
C1059      C1065   1.479       .  S
C1059      C1063   1.529       .  S
C1059      C1090   1.480       .  S
C1060      H1067   1.079       .  S
C1060      C1061   1.378       .  D
C1061      C1062   1.571       .  S
C1062      C1066   1.584       .  S
C1062      C1064   1.580       .  S
C1062      H1068   1.109       .  S
C1063      H1069   1.079       .  S
C1063      C1064   1.365       .  D
C1064      C1492   1.513       .  S
C1065      H1070   1.086       .  S
C1065      C1066   1.322       .  D
C1066      C1244   1.460       .  S
O1071      C1086   1.264       .  A
O1071     Al1079   1.898       .  S
C1072      C1214   1.485       .  S
C1072      O1082   1.260       .  A
C1072      O1073   1.269       .  A
O1073     Al1075   1.877       .  S
O1074      C1076   1.247       .  A
O1074     Al1075   1.885       .  S
Al1075     O1083   1.891       .  S
Al1075     O1085   1.906       .  S
Al1075     O1084   1.761       .  S
C1076      C1238   1.442       .  S
C1076      O1089   1.260       .  A
O1077      C1087   1.260       .  A
O1077     Al1079   1.919       .  S
O1078      C1091   1.269       .  A
O1078     Al1088   1.909       .  S
Al1079     O1092   1.888       .  S
Al1079     O1089   1.868       .  S
Al1079     O1084   1.748       .  S
O1080      C1087   1.249       .  A
O1080     Al1088   1.834       .  S
O1081      C1090   1.263       .  A
O1081     Al1088   1.881       .  S
O1082     Al1088   1.947       .  S
O1083      C1090   1.258       .  A
O1084     Al1088   1.761       .  S
O1085      C1086   1.266       .  A
C1087      C1226   1.437       .  S
C1091      O1092   1.262       .  A
N1093      C1097   1.380       .  A
N1093      C1094   1.372       .  A
N1093      N1100   1.442       .  S
C1095      H1098   1.083       .  S
C1096      C1097   1.381       .  A
N1100      C1104   1.371       .  A
N1100      C1101   1.381       .  A
C1101      C1511   1.536   1_545  S
C1101      C1576   1.383       .  A
C1102      C1575   1.381       .  A
C1102      C1577   1.384       .  A
C1102      H1105   1.083       .  S
C1103      C1576   1.384       .  A
C1103      C1104   1.395       .  A
C1103      H1580   1.084       .  S
H1106      C1577   1.083       .  S
C1107      C1108   1.514       .  S
C1107      C1113   1.506       .  S
C1107      C1111   1.504       .  S
C1107      C1163   1.490       .  S
C1108      H1115   1.082       .  S
C1108      C1109   1.386       .  D
C1109      C1110   1.598       .  S
C1109      C1190   1.552       .  S
C1110      C1114   1.526       .  S
C1110      C1112   1.605       .  S
C1110      H1116   1.110       .  S
C1111      H1117   1.083       .  S
C1111      C1112   1.378       .  D
C1112      C1194   1.552       .  S
C1113      H1118   1.068       .  S
C1113      C1114   1.326       .  D
C1114      C1306   1.429       .  S
C1119      C1120   1.538       .  S
C1119      C1125   1.482       .  S
C1119      C1123   1.528       .  S
C1119      C1162   1.492       .  S
C1120      H1127   1.078       .  S
C1120      C1121   1.378       .  D
C1121      C1122   1.557       .  S
C1121      C1173   1.512       .  S
C1122      C1126   1.593       .  S
C1122      C1124   1.579       .  S
C1122      H1128   1.108       .  S
C1123      H1129   1.078       .  S
C1123      C1124   1.369       .  D
C1124      C1180   1.520       .  S
C1125      H1130   1.083       .  S
C1125      C1126   1.330       .  D
C1126      C1302   1.482       .  S
C1131      C1132   1.520       .  S
C1131      C1137   1.488       .  S
C1131      C1135   1.532       .  S
C1131      C1158   1.505       .  S
C1132      H1139   1.072       .  S
C1132      C1133   1.383       .  D
C1133      C1134   1.574       .  S
C1133      C1201   1.520       .  S
C1134      C1138   1.554       .  S
C1134      C1136   1.586       .  S
C1134      H1140   1.108       .  S
C1135      H1141   1.085       .  S
C1135      C1136   1.372       .  D
C1136      C1166   1.543       .  S
C1137      H1142   1.078       .  S
C1137      C1138   1.332       .  D
C1138      C1317   1.438       .  S
O1143      C1158   1.264       .  A
O1143     Al1625   1.901   1_545  S
C1144      C1296   1.461       .  S
C1144      O1154   1.254       .  A
C1144      O1145   1.265       .  A
O1146      C1148   1.245       .  A
O1146     Al1147   1.868       .  S
Al1147     O1157   1.919       .  S
C1148      C1284   1.425       .  S
C1148      O1161   1.254       .  A
O1149      C1159   1.261   1_455  A
O1150      C1163   1.265       .  A
O1150     Al1160   1.912       .  S
Al1151     O1617   1.905       .  S
Al1151     O1635   1.857       .  S
O1152      C1159   1.256       .  A
O1152     Al1160   1.852       .  S
O1153      C1162   1.265       .  A
O1153     Al1634   1.893   1_545  S
O1154     Al1634   1.905   1_545  S
O1155      C1162   1.261       .  A
O1156     Al1634   1.764   1_545  S
O1157      C1158   1.270       .  A
C1159      C1272   1.457       .  S
Al1160     O1627   1.884       .  S
Al1160     O1628   1.916       .  S
Al1160     O1630   1.768       .  S
O1161     Al1625   1.856   1_545  S
C1163      O1164   1.264       .  A
N1165      C1643   1.367   1_545  A
N1165      C1166   1.380       .  A
N1165      N1172   1.433       .  S
C1166      C1167   1.388   1_545  A
C1167      C1642   1.380       .  A
C1167      H1170   1.083   1_565  S
C1168      C1641   1.379       .  A
C1168      C1169   1.378       .  A
C1168      H1171   1.064       .  S
C1169      C1212   1.527       .  S
C1169      N1639   1.368       .  A
N1172      C1650   1.373   1_545  A
N1172      C1173   1.359       .  A
C1173      C1174   1.380       .  A
C1174      C1175   1.376       .  A
C1174      H1177   1.066       .  S
C1175      C1650   1.387   1_545  A
C1175      H1652   1.083       .  S
C1176      C1233   1.531       .  S
C1176      N1646   1.371       .  A
C1176      C1649   1.388       .  A
H1178      C1649   1.083       .  S
N1179      C1180   1.359       .  A
C1180      C1181   1.383       .  A
C1181      H1184   1.067       .  S
C1182      C1183   1.390       .  A
C1182      H1185   1.083       .  S
C1183      C1224   1.557       .  S
N1186      C1187   1.356       .  A
C1187      C1209   1.515       .  S
C1187      C1188   1.385       .  A
C1188      H1191   1.067       .  S
C1189      C1190   1.388   1_455  A
C1189      H1192   1.083   1_455  S
N1193      C1197   1.378       .  A
N1193      C1194   1.379       .  A
N1193      N1200   1.442       .  S
C1194      C1195   1.396       .  A
C1195      C1196   1.385       .  A
C1195      H1198   1.083       .  S
C1196      C1197   1.381       .  A
C1196      H1199   1.083       .  S
C1197      C1236   1.526       .  S
N1200      C1204   1.373       .  A
N1200      C1201   1.373       .  A
C1201      C1202   1.382       .  A
C1202      C1203   1.382       .  A
C1202      H1205   1.083       .  S
C1203      C1204   1.395       .  A
C1203      H1206   1.083       .  S
C1204      C1221   1.543       .  S
C1207      C1208   1.528       .  S
C1207      C1213   1.481       .  S
C1207      C1211   1.542       .  S
C1207      C1262   1.495       .  S
C1208      C1209   1.373       .  D
C1209      C1210   1.564       .  S
C1210      C1214   1.596       .  S
C1210      C1212   1.581       .  S
C1210      H1216   1.108       .  S
C1211      H1691   1.082       .  S
C1211      C1212   1.377       .  D
C1213      H1218   1.086       .  S
C1213      C1214   1.327       .  D
H1217      C1685   1.081   1_545  S
C1219      C1220   1.504       .  S
C1219      C1225   1.506       .  S
C1219      C1223   1.507       .  S
C1219      C1258   1.489       .  S
C1220      H1227   1.083       .  S
C1220      C1221   1.381       .  D
C1221      C1222   1.585       .  S
C1222      C1226   1.525       .  S
C1222      C1224   1.617       .  S
C1222      H1228   1.110       .  S
C1223      C1224   1.382       .  D
C1225      H1230   1.069       .  S
C1225      C1226   1.333       .  D
C1231      C1232   1.533       .  S
C1231      C1237   1.495       .  S
C1231      C1235   1.515       .  S
C1231      C1263   1.490       .  S
C1232      H1713   1.086       .  S
C1232      C1233   1.375       .  D
C1233      C1234   1.566       .  S
C1234      C1238   1.550       .  S
C1234      C1236   1.595       .  S
C1234      H1240   1.108       .  S
C1235      H1241   1.076       .  S
C1235      C1236   1.376       .  D
C1237      H1242   1.076       .  S
C1237      C1238   1.332       .  D
H1239      C1706   1.085   1_545  S
O1243     Al1251   1.908       .  S
C1244      O1719   1.267       .  A
O1245      C1718   1.267       .  A
O1245     Al1247   1.885   1_565  S
O1246      C1248   1.246       .  A
O1246     Al1247   1.873       .  S
Al1247     O1255   1.897       .  S
Al1247     O1257   1.881       .  S
C1248      O1261   1.257       .  A
O1249      C1733   1.252   1_545  A
O1249     Al1251   1.898       .  S
O1250      C1263   1.264       .  A
O1250     Al1260   1.915       .  S
Al1251     O1264   1.885   1_545  S
Al1251     O1256   1.759       .  S
O1252      C1259   1.258       .  A
O1252     Al1260   1.871       .  S
O1253      C1262   1.269       .  A
O1254     Al1260   1.897       .  S
O1255      C1736   1.256   1_545  A
O1256     Al1734   1.772   1_545  S
O1257      C1258   1.266       .  A
C1259      O1723   1.252       .  A
Al1260     O1730   1.774       .  S
C1262      O1729   1.257       .  A
C1263      O1738   1.266       .  A
O1264      C1737   1.268       .  A
C1265      C1266   1.520       .  S
C1265      C1271   1.498       .  S
C1265      C1269   1.527       .  S
C1265      C1316   1.501       .  S
C1266      H1273   1.073       .  S
C1266      C1267   1.380       .  D
C1267      C1268   1.574       .  S
C1268      C1272   1.558       .  S
C1268      C1270   1.582       .  S
C1268      H1274   1.106       .  S
C1269      H1275   1.084       .  S
C1269      C1270   1.372       .  D
C1270      C1334   1.536       .  S
C1271      H1276   1.075       .  S
C1271      C1272   1.334       .  D
C1277      C1278   1.509       .  S
C1277      C1283   1.502       .  S
C1277      C1281   1.506       .  S
C1277      C1321   1.481       .  S
C1278      H1285   1.083       .  S
C1278      C1279   1.383       .  D
C1279      C1280   1.601       .  S
C1279      C1352   1.548       .  S
C1280      C1284   1.526       .  S
C1280      C1282   1.606       .  S
C1280      H1286   1.110       .  S
C1281      H1287   1.084       .  S
C1281      C1282   1.378       .  D
C1282      C1812   1.554   1_545  S
C1283      H1288   1.070       .  S
C1283      C1284   1.322       .  D
C1289      C1290   1.521       .  S
C1289      C1295   1.499       .  S
C1289      C1293   1.514       .  S
C1289      C1320   1.476       .  S
C1290      H1297   1.080       .  S
C1290      C1291   1.379       .  D
C1291      C1292   1.590       .  S
C1291      C1324   1.515   1_545  S
C1292      C1296   1.562       .  S
C1292      C1294   1.580       .  S
C1292      H1298   1.110       .  S
C1293      H1299   1.085       .  S
C1293      C1294   1.364       .  D
C1294      C1362   1.518   1_655  S
C1295      H1300   1.083       .  S
C1295      C1296   1.322       .  D
O1301      C1316   1.263       .  A
O1301     Al1309   1.900       .  S
C1302      O1312   1.258       .  A
C1302      O1303   1.272       .  A
O1303     Al1305   1.896       .  S
O1304      C1306   1.251       .  A
O1304     Al1305   1.876       .  S
Al1305     O1313   1.890       .  S
Al1305     O1315   1.909       .  S
Al1305     O1314   1.744       .  S
C1306      O1319   1.256       .  A
O1307      C1317   1.258       .  A
O1307     Al1309   1.927       .  S
O1308      C1321   1.262       .  A
O1308     Al1318   1.894       .  S
Al1309     O1322   1.890       .  S
Al1309     O1319   1.861       .  S
Al1309     O1314   1.753       .  S
O1310      C1317   1.248       .  A
O1310     Al1318   1.816       .  S
O1311      C1320   1.257       .  A
O1311     Al1318   1.861       .  S
O1312     Al1318   1.936       .  S
O1313      C1320   1.262       .  A
O1314     Al1318   1.769       .  S
O1315      C1316   1.264       .  A
C1321      O1322   1.269       .  A
N1323      C1327   1.377       .  A
N1323      C1798   1.363       .  A
N1323      N1330   1.434       .  S
C1324      N1797   1.369       .  A
C1324      C1325   1.380   1_565  A
C1325      C1326   1.384   1_545  A
C1325      H1328   1.083       .  S
C1326      C1801   1.396       .  A
C1326      H1329   1.083       .  S
C1327      C1379   1.540       .  S
C1327      C1800   1.387       .  A
N1330      C1334   1.379       .  A
N1330      C1331   1.368       .  A
C1331      C1370   1.528       .  S
C1331      C1332   1.380       .  A
C1332      C1333   1.378       .  A
C1332      H1335   1.065       .  S
C1333      C1334   1.388       .  A
C1333      H1336   1.084       .  S
N1337      C1341   1.372       .  A
N1337      C1338   1.378       .  A
N1337      N1344   1.442       .  S
C1338      C1756   1.550       .  S
C1338      C1813   1.396       .  A
C1339      C1812   1.396       .  A
C1339      C1340   1.384       .  A
C1339      H1342   1.084       .  S
C1340      C1815   1.382       .  A
C1340      H1343   1.083       .  S
C1341      C1382   1.520       .  S
C1341      C1814   1.381       .  A
N1344      C1348   1.379       .  A
N1344      C1345   1.374       .  A
C1346      C1347   1.380   1_655  A
C1346      H1349   1.083       .  S
C1347      H1350   1.083       .  S
C1348      C1391   1.551       .  S
N1351      C1355   1.360       .  A
N1351      C1352   1.380       .  A
N1351      N1358   1.436       .  S
C1352      C1353   1.390       .  A
C1353      C1354   1.381       .  A
C1353      H1356   1.083       .  S
C1354      C1355   1.383       .  A
C1354      H1357   1.066       .  S
C1355      C1367   1.521       .  S
N1358      C1359   1.385       .  A
C1359      C1394   1.558       .  S
C1360      C1361   1.372       .  A
C1360      H1363   1.083       .  S
C1361      C1362   1.396       .  A
C1361      H1364   1.083       .  S
C1365      C1366   1.538       .  S
C1365      C1371   1.480       .  S
C1365      C1369   1.544       .  S
C1365      C1416   1.501       .  S
C1366      H1373   1.078       .  S
C1366      C1367   1.377       .  D
C1367      C1368   1.561       .  S
C1368      C1372   1.585       .  S
C1368      C1370   1.576       .  S
C1368      H1374   1.109       .  S
C1369      H1375   1.081       .  S
C1369      C1370   1.381       .  D
C1371      H1376   1.086       .  S
C1371      C1372   1.324       .  D
C1377      C1378   1.525       .  S
C1377      C1857   1.495       .  S
C1377      C1381   1.518       .  S
C1377      C1420   1.484       .  S
C1378      H1385   1.087       .  S
C1378      C1853   1.368   1_545  D
C1379      C1380   1.568       .  S
C1379      C1852   1.380       .  D
C1380      C1384   1.551       .  S
C1380      C1382   1.586       .  S
C1380      H1386   1.109       .  S
C1381      H1387   1.074       .  S
C1381      C1856   1.382   1_545  D
C1382      C1855   1.381       .  D
C1383      C1851   1.494       .  S
C1383      H1862   1.075       .  S
C1383      C1384   1.328       .  D
H1388      C1857   1.076       .  S
C1389      C1390   1.529       .  S
C1389      C1393   1.526       .  S
C1389      C1421   1.494       .  S
C1390      H1397   1.085       .  S
C1391      C1392   1.596       .  S
C1392      C1396   1.526       .  S
C1392      C1394   1.609       .  S
C1392      H1398   1.110       .  S
C1393      H1399   1.078       .  S
C1395      H1400   1.072       .  S
C1395      C1396   1.327       .  D
O1401      C1416   1.261       .  A
O1401     Al1409   1.916       .  S
C1402      O1412   1.251       .  A
C1402      O1403   1.259       .  A
O1403     Al1405   1.871       .  S
O1404      C1406   1.250       .  A
O1404     Al1405   1.903       .  S
Al1405     O1413   1.905       .  S
Al1405     O1415   1.898       .  S
Al1405     O1414   1.772       .  S
C1406      O1419   1.267       .  A
O1407      C1417   1.251       .  A
O1407     Al1409   1.899       .  S
O1408      C1421   1.260       .  A
O1408     Al1418   1.908       .  S
Al1409     O1422   1.888       .  S
Al1409     O1419   1.879       .  S
Al1409     O1414   1.754       .  S
O1410      C1417   1.260       .  A
O1410     Al1418   1.880       .  S
O1411      C1420   1.270       .  A
O1411     Al1418   1.876       .  S
O1412     Al1418   1.895       .  S
O1413      C1420   1.259       .  A
O1414     Al1418   1.762       .  S
O1415      C1416   1.269       .  A
C1421      O1422   1.269       .  A
C1423      C1424   1.511       .  S
C1423      C1429   1.494       .  S
C1423      C1427   1.525       .  S
C1423      C1474   1.473       .  S
C1424      H1431   1.086       .  S
C1424      C1425   1.368       .  D
C1425      C1426   1.575       .  S
C1425      C1485   1.521       .  S
C1426      C1430   1.560       .  S
C1426      C1428   1.606       .  S
C1426      H1432   1.110       .  S
C1427      H1433   1.081       .  S
C1427      C1428   1.382       .  D
C1428      C1503   1.530       .  S
C1429      H1434   1.085   1_554  S
C1429      C1430   1.320       .  D
C1430      C1880   1.459   1_554  S
C1435      C1436   1.528       .  S
C1435      C1439   1.527       .  S
C1435      C1478   1.507       .  S
C1436      H1443   1.086       .  S
C1437      C1438   1.565       .  S
C1437      C1499   1.525       .  S
C1438      C1442   1.549       .  S
C1438      C1440   1.595       .  S
C1438      H1444   1.110       .  S
C1439      H1445   1.077       .  S
C1440      C1571   1.531       .  S
C1441      H1446   1.071   1_554  S
C1441      C1442   1.337       .  D
C1442      C1891   1.458   1_554  S
C1447      C1448   1.501       .  S
C1447      C1451   1.502       .  S
C1447      C1479   1.471       .  S
C1448      H1455   1.086       .  S
C1449      C1450   1.596       .  S
C1449      C1578   1.539       .  S
C1450      C1454   1.533       .  S
C1450      C1452   1.616       .  S
C1450      H1456   1.110       .  S
C1451      H1457   1.080       .  S
C1452      C1489   1.552       .  S
C1453      H1458   1.075   1_554  S
C1453      C1454   1.324       .  D
C1454      C1876   1.447   1_554  S
O1459      C1474   1.247       .  A
O1459     Al1467   1.873   1_554  S
C1460      C1870   1.432       .  S
C1460      O1470   1.253       .  A
C1460      O1461   1.255       .  A
O1461     Al1463   1.859       .  S
O1462      C1464   1.254       .  A
O1462     Al1463   1.926       .  S
Al1463     O1471   1.925   1_556  S
Al1463     O1473   1.883   1_556  S
Al1463     O1472   1.759       .  S
C1464      C1846   1.470       .  S
C1464      O1477   1.264       .  A
O1465      C1475   1.240       .  A
O1465     Al1467   1.856       .  S
O1466      C1479   1.262       .  A
O1466     Al1476   1.907   1_554  S
Al1467     O1480   1.843   1_556  S
Al1467     O1477   1.865       .  S
Al1467     O1472   1.776       .  S
O1468      C1475   1.268       .  A
O1468     Al1476   1.901       .  S
O1469      C1478   1.270       .  A
O1469     Al1476   1.901   1_554  S
O1470     Al1476   1.885       .  S
O1471      C1478   1.264       .  A
O1472     Al1476   1.749       .  S
O1473      C1474   1.275       .  A
C1475      C1858   1.442       .  S
C1479      O1480   1.262       .  A
N1481      C1485   1.380       .  A
N1481      C1482   1.397       .  A
N1481      N1488   1.464       .  S
C1482      C1523   1.517       .  S
C1482      C1483   1.383       .  A
C1483      C1484   1.371       .  A
C1483      H1486   1.083       .  S
C1484      C1485   1.395       .  A
C1484      H1487   1.083       .  S
N1488      C1492   1.382       .  A
N1488      C1489   1.398       .  A
C1490      C1491   1.374       .  A
C1490      H1493   1.082       .  S
C1491      H1494   1.072   1_545  S
N1495      C1499   1.367       .  A
N1495      C1496   1.373       .  A
N1495      N1502   1.436       .  S
C1497      C1498   1.378       .  A
C1497      H1500   1.072       .  S
C1498      H1501   1.083       .  S
N1502      C1506   1.371       .  A
N1502      C1503   1.379       .  A
C1503      C1504   1.381       .  A
C1504      C1505   1.383       .  A
C1504      H1507   1.082       .  S
C1505      C1506   1.394       .  A
C1505      H1508   1.083       .  S
C1506      C1514   1.539       .  S
C1509      C1510   1.528       .  S
C1509      C1515   1.497       .  S
C1509      C1513   1.526       .  S
C1509      C1560   1.499       .  S
C1510      H1517   1.075       .  S
C1510      C1511   1.382       .  D
C1511      C1512   1.592       .  S
C1512      C1516   1.554       .  S
C1512      C1514   1.584       .  S
C1512      H1518   1.109       .  S
C1513      H1519   1.085       .  S
C1513      C1514   1.370       .  D
C1515      H1520   1.081       .  S
C1515      C1516   1.329       .  D
C1516      C1733   1.445       .  S
C1521      C1522   1.518       .  S
C1521      C1527   1.499       .  S
C1521      C1525   1.524       .  S
C1521      C1565   1.492       .  S
C1522      H1529   1.074       .  S
C1522      C1523   1.372       .  D
C1523      C1524   1.590       .  S
C1524      C1528   1.547       .  S
C1524      C1526   1.576       .  S
C1524      H1530   1.110       .  S
C1525      H1531   1.085       .  S
C1525      C1526   1.375       .  D
C1527      H1532   1.073       .  S
C1527      C1528   1.332       .  D
C1528      C1722   1.440       .  S
C1533      C1534   1.546       .  S
C1533      C1539   1.481       .  S
C1533      C1537   1.528       .  S
C1533      C1564   1.488       .  S
C1534      H1541   1.079       .  S
C1534      C1535   1.380       .  D
C1535      C1536   1.570       .  S
C1536      C1540   1.582       .  S
C1536      C1538   1.579       .  S
C1536      H1542   1.109       .  S
C1537      H1543   1.078       .  S
C1537      C1538   1.365       .  D
C1539      H1544   1.083       .  S
C1539      C1540   1.325       .  D
C1540      C1718   1.461       .  S
O1545      C1560   1.265       .  A
O1545     Al1553   1.903       .  S
C1546      C1688   1.481       .  S
C1546      O1556   1.261       .  A
C1546      O1547   1.268       .  A
O1547     Al1549   1.875       .  S
O1548      C1550   1.250       .  A
O1548     Al1549   1.892       .  S
Al1549     O1557   1.904       .  S
Al1549     O1559   1.902       .  S
Al1549     O1558   1.761       .  S
C1550      C1712   1.445       .  S
C1550      O1563   1.259       .  A
O1551      C1561   1.259       .  A
O1551     Al1553   1.922       .  S
O1552      C1565   1.269       .  A
O1552     Al1562   1.907       .  S
Al1553     O1566   1.891       .  S
Al1553     O1563   1.863       .  S
Al1553     O1558   1.752       .  S
O1554      C1561   1.248       .  A
O1554     Al1562   1.836       .  S
O1555      C1564   1.263       .  A
O1555     Al1562   1.882       .  S
O1556     Al1562   1.945       .  S
O1557      C1564   1.261       .  A
O1558     Al1562   1.762       .  S
O1559      C1560   1.264       .  A
C1561      C1700   1.439       .  S
C1565      O1566   1.264       .  A
N1567      C1571   1.381       .  A
N1567      C1568   1.369       .  A
N1567      N1574   1.442       .  S
C1569      H1572   1.083       .  S
C1570      C1571   1.382       .  A
N1574      C1578   1.371       .  A
N1574      C1575   1.382       .  A
C1576      H1579   1.083   1_545  S
C1577      C1578   1.395       .  A
C1581      C1582   1.518       .  S
C1581      C1587   1.503       .  S
C1581      C1585   1.506       .  S
C1581      C1637   1.493       .  S
C1582      H1589   1.083       .  S
C1582      C1583   1.386       .  D
C1583      C1584   1.596       .  S
C1583      C1664   1.553       .  S
C1584      C1588   1.526       .  S
C1584      C1586   1.602       .  S
C1584      H1590   1.110       .  S
C1585      H1591   1.083       .  S
C1585      C1586   1.380       .  D
C1586      C1668   1.552       .  S
C1587      H1592   1.068       .  S
C1587      C1588   1.327       .  D
C1588      C1780   1.426       .  S
C1593      C1594   1.538       .  S
C1593      C1599   1.480       .  S
C1593      C1597   1.526       .  S
C1593      C1636   1.483       .  S
C1594      H1601   1.078       .  S
C1594      C1595   1.377       .  D
C1595      C1596   1.560       .  S
C1595      C1647   1.513       .  S
C1596      C1600   1.594       .  S
C1596      C1598   1.577       .  S
C1596      H1602   1.108       .  S
C1597      H1603   1.078       .  S
C1597      C1598   1.366       .  D
C1598      C1654   1.515       .  S
C1599      H1604   1.085       .  S
C1599      C1600   1.326       .  D
C1600      C1776   1.477       .  S
C1605      C1606   1.522       .  S
C1605      C1611   1.496       .  S
C1605      C1609   1.528       .  S
C1605      C1632   1.505       .  S
C1606      H1613   1.073       .  S
C1606      C1607   1.381       .  D
C1607      C1608   1.579       .  S
C1607      C1675   1.524       .  S
C1608      C1612   1.556       .  S
C1608      C1610   1.586       .  S
C1608      H1614   1.108       .  S
C1609      H1615   1.086       .  S
C1609      C1610   1.370       .  D
C1610      C1640   1.538       .  S
C1611      H1616   1.073       .  S
C1611      C1612   1.335       .  D
C1612      C1791   1.453       .  S
O1617      C1632   1.266       .  A
C1618      C1770   1.477       .  S
C1618      O1628   1.254       .  A
C1618      O1619   1.271       .  A
O1620      C1622   1.247       .  A
O1620     Al1621   1.872       .  S
Al1621     O1631   1.913       .  S
C1622      C1758   1.426       .  S
C1622      O1635   1.252       .  A
O1623      C1633   1.259   1_455  A
O1624      C1637   1.265       .  A
O1624     Al1634   1.915       .  S
O1626      C1633   1.257       .  A
O1626     Al1634   1.866       .  S
O1627      C1636   1.263       .  A
O1629      C1636   1.258       .  A
O1631      C1632   1.268       .  A
C1633      C1746   1.457       .  S
C1637      O1638   1.263       .  A
N1639      C1640   1.376       .  A
N1639      N1646   1.430       .  S
C1640      C1641   1.388       .  A
C1641      H1644   1.083       .  S
C1642      C1643   1.380       .  A
C1642      H1645   1.066       .  S
C1643      C1686   1.526       .  S
N1646      C1647   1.360       .  A
C1647      C1648   1.379       .  A
C1648      C1649   1.378       .  A
C1648      H1651   1.068       .  S
C1650      C1707   1.534       .  S
N1653      C1654   1.359       .  A
C1654      C1655   1.383       .  A
C1655      H1658   1.068       .  S
C1656      C1657   1.391       .  A
C1656      H1659   1.084       .  S
C1657      C1698   1.560       .  S
N1660      C1661   1.357       .  A
C1661      C1683   1.508       .  S
C1661      C1662   1.381       .  A
C1662      H1665   1.066       .  S
C1663      C1664   1.387   1_455  A
C1663      H1666   1.083   1_455  S
N1667      C1671   1.378       .  A
N1667      C1668   1.379       .  A
N1667      N1674   1.443       .  S
C1668      C1669   1.395       .  A
C1669      C1670   1.385       .  A
C1669      H1672   1.083       .  S
C1670      C1671   1.383       .  A
C1670      H1673   1.083       .  S
C1671      C1710   1.531       .  S
N1674      C1678   1.375       .  A
N1674      C1675   1.375       .  A
C1675      C1676   1.382       .  A
C1676      C1677   1.383       .  A
C1676      H1679   1.083       .  S
C1677      C1678   1.395       .  A
C1677      H1680   1.083       .  S
C1678      C1695   1.546       .  S
C1681      C1682   1.527       .  S
C1681      C1687   1.481       .  S
C1681      C1685   1.539       .  S
C1681      C1736   1.490       .  S
C1682      C1683   1.369       .  D
C1683      C1684   1.560       .  S
C1684      C1688   1.592       .  S
C1684      C1686   1.581       .  S
C1684      H1690   1.108       .  S
C1685      C1686   1.377       .  D
C1687      H1692   1.083       .  S
C1687      C1688   1.330       .  D
C1693      C1694   1.504       .  S
C1693      C1699   1.506       .  S
C1693      C1697   1.506       .  S
C1693      C1732   1.487       .  S
C1694      H1701   1.084       .  S
C1694      C1695   1.381       .  D
C1695      C1696   1.590       .  S
C1696      C1700   1.526       .  S
C1696      C1698   1.620       .  S
C1696      H1702   1.110       .  S
C1697      C1698   1.381       .  D
C1699      H1704   1.070       .  S
C1699      C1700   1.332       .  D
C1705      C1706   1.533       .  S
C1705      C1711   1.493       .  S
C1705      C1709   1.519       .  S
C1705      C1737   1.494       .  S
C1706      C1707   1.378       .  D
C1707      C1708   1.566       .  S
C1708      C1712   1.553       .  S
C1708      C1710   1.597       .  S
C1708      H1714   1.108       .  S
C1709      H1715   1.076       .  S
C1709      C1710   1.377       .  D
C1711      H1716   1.078       .  S
C1711      C1712   1.330       .  D
O1717     Al1725   1.909       .  S
O1719     Al1721   1.878       .  S
O1720      C1722   1.247       .  A
O1720     Al1721   1.879       .  S
Al1721     O1729   1.901       .  S
Al1721     O1731   1.882       .  S
C1722      O1735   1.258       .  A
O1723     Al1725   1.893       .  S
O1724      C1737   1.263       .  A
O1724     Al1734   1.914       .  S
Al1725     O1738   1.874       .  S
Al1725     O1730   1.757       .  S
O1726      C1733   1.258       .  A
O1726     Al1734   1.868       .  S
O1727      C1736   1.268       .  A
O1728     Al1734   1.903       .  S
O1731      C1732   1.266       .  A
C1739      C1740   1.515       .  S
C1739      C1745   1.498       .  S
C1739      C1743   1.526       .  S
C1739      C1790   1.496       .  S
C1740      H1747   1.074       .  S
C1740      C1741   1.376       .  D
C1741      C1742   1.582       .  S
C1742      C1746   1.559       .  S
C1742      C1744   1.582       .  S
C1742      H1748   1.110       .  S
C1743      H1749   1.085       .  S
C1743      C1744   1.371       .  D
C1744      C1808   1.532       .  S
C1745      H1750   1.074       .  S
C1745      C1746   1.335       .  D
C1751      C1752   1.515       .  S
C1751      C1757   1.506       .  S
C1751      C1755   1.503       .  S
C1751      C1795   1.492       .  S
C1752      H1759   1.083       .  S
C1752      C1753   1.385       .  D
C1753      C1754   1.594       .  S
C1753      C1826   1.547       .  S
C1754      C1758   1.523       .  S
C1754      C1756   1.600       .  S
C1754      H1760   1.110       .  S
C1755      H1761   1.083       .  S
C1755      C1756   1.380       .  D
C1757      H1762   1.066       .  S
C1757      C1758   1.328       .  D
C1763      C1764   1.532       .  S
C1763      C1769   1.482       .  S
C1763      C1767   1.536       .  S
C1763      C1794   1.484       .  S
C1764      H1771   1.078       .  S
C1764      C1765   1.373       .  D
C1765      C1766   1.566       .  S
C1765      C1798   1.512       .  S
C1766      C1770   1.591       .  S
C1766      C1768   1.573       .  S
C1766      H1772   1.107       .  S
C1767      H1773   1.080       .  S
C1767      C1768   1.374       .  D
C1768      C1836   1.521   1_655  S
C1769      H1774   1.085       .  S
C1769      C1770   1.325       .  D
O1775      C1790   1.264       .  A
O1775     Al1783   1.899       .  S
C1776      O1786   1.255       .  A
C1776      O1777   1.270       .  A
O1777     Al1779   1.891       .  S
O1778      C1780   1.247       .  A
O1778     Al1779   1.867       .  S
Al1779     O1787   1.897       .  S
Al1779     O1789   1.899       .  S
Al1779     O1788   1.763       .  S
C1780      O1793   1.254       .  A
O1781      C1791   1.261       .  A
O1781     Al1783   1.933       .  S
O1782      C1795   1.266       .  A
O1782     Al1792   1.913       .  S
Al1783     O1796   1.881       .  S
Al1783     O1793   1.861       .  S
Al1783     O1788   1.754       .  S
O1784      C1791   1.253       .  A
O1784     Al1792   1.848       .  S
O1785      C1794   1.265       .  A
O1785     Al1792   1.883       .  S
O1786     Al1792   1.923       .  S
O1787      C1794   1.257       .  A
O1788     Al1792   1.766       .  S
O1789      C1790   1.265       .  A
C1795      O1796   1.265       .  A
N1797      C1801   1.372       .  A
N1797      N1804   1.432       .  S
C1798      C1799   1.382       .  A
C1799      C1800   1.375       .  A
C1799      H1802   1.068       .  S
C1800      H1803   1.084       .  S
C1801      C1853   1.543       .  S
N1804      C1808   1.375       .  A
N1804      C1805   1.369       .  A
C1805      C1844   1.529       .  S
C1805      C1806   1.381       .  A
C1806      C1807   1.378       .  A
C1806      H1809   1.065       .  S
C1807      C1808   1.387       .  A
C1807      H1810   1.083       .  S
N1811      C1815   1.379       .  A
N1811      C1812   1.381       .  A
N1811      N1818   1.445       .  S
C1813      C1814   1.384       .  A
C1813      H1816   1.084       .  S
C1814      H1817   1.083       .  S
C1815      C1856   1.530       .  S
N1818      C1822   1.380       .  A
N1818      C1819   1.374       .  A
C1820      C1821   1.384       .  A
C1820      H1823   1.083   1_455  S
C1821      H1824   1.083       .  S
C1822      C1865   1.555       .  S
N1825      C1829   1.361       .  A
N1825      C1826   1.380       .  A
N1825      N1832   1.436       .  S
C1826      C1827   1.388       .  A
C1827      C1828   1.378       .  A
C1827      H1830   1.083       .  S
C1828      C1829   1.382       .  A
C1828      H1831   1.065       .  S
C1829      C1841   1.520       .  S
N1832      C1833   1.383       .  A
C1833      C1868   1.552       .  S
C1834      C1835   1.383       .  A
C1834      H1837   1.083       .  S
C1835      C1836   1.379       .  A
C1835      H1838   1.068   1_455  S
C1839      C1840   1.536       .  S
C1839      C1845   1.479       .  S
C1839      C1843   1.543       .  S
C1839      C1890   1.496       .  S
C1840      H1847   1.077       .  S
C1840      C1841   1.374       .  D
C1841      C1842   1.563       .  S
C1842      C1846   1.588       .  S
C1842      C1844   1.579       .  S
C1842      H1848   1.108       .  S
C1843      H1849   1.081       .  S
C1843      C1844   1.380       .  D
C1845      H1850   1.087       .  S
C1845      C1846   1.324       .  D
C1851      C1852   1.532       .  S
C1851      C1855   1.519       .  S
C1851      C1894   1.496       .  S
C1852      H1859   1.085       .  S
C1853      C1854   1.580       .  S
C1854      C1858   1.552       .  S
C1854      C1856   1.598       .  S
C1854      H1860   1.107       .  S
C1855      H1861   1.076       .  S
C1857      C1858   1.325   1_545  D
C1863      C1864   1.509       .  S
C1863      C1867   1.514       .  S
C1863      C1895   1.488       .  S
C1864      H1871   1.084       .  S
C1865      C1866   1.594       .  S
C1866      C1870   1.528       .  S
C1866      C1868   1.608       .  S
C1866      H1872   1.110       .  S
C1867      H1873   1.085       .  S
C1869      H1874   1.074       .  S
C1869      C1870   1.328       .  D
O1875      C1890   1.260       .  A
O1875     Al1883   1.908       .  S
C1876      O1886   1.252       .  A
C1876      O1877   1.260       .  A
O1877     Al1879   1.874       .  S
O1878      C1880   1.251       .  A
O1878     Al1879   1.910       .  S
Al1879     O1887   1.916       .  S
Al1879     O1889   1.900       .  S
Al1879     O1888   1.771       .  S
C1880      O1893   1.263       .  A
O1881      C1891   1.252       .  A
O1881     Al1883   1.906       .  S
O1882      C1895   1.261       .  A
O1882     Al1892   1.903       .  S
Al1883     O1896   1.879       .  S
Al1883     O1893   1.866       .  S
Al1883     O1888   1.761       .  S
O1884      C1891   1.261       .  A
O1884     Al1892   1.890       .  S
O1885      C1894   1.268       .  A
O1885     Al1892   1.886       .  S
O1886     Al1892   1.895       .  S
O1887      C1894   1.261       .  A
O1888     Al1892   1.756       .  S
O1889      C1890   1.270       .  A
C1895      O1896   1.266       .  A
