geometry optimzed in LAMMPS
_audit_creation_date              2020-11-30 
_audit_creation_method            'lammps2cif' 
_symmetry_space_group_name_H-M    'P1' 
_symmetry_Int_Tables_number       1 
_symmetry_cell_setting            triclinic 
loop_ 
_symmetry_equiv_pos_as_xyz 
  x,y,z 
_cell_length_a                    29.06159209 
_cell_length_b                    29.51663940918132 
_cell_length_c                    28.083627252967133 
_cell_angle_alpha                 75.12397944659263 
_cell_angle_beta                  68.0797405391204 
_cell_angle_gamma                 90.78855192556344 
loop_ 
_atom_site_label 
_atom_site_type_symbol 
_atom_site_fract_x 
_atom_site_fract_y 
_atom_site_fract_z 
_atom_site_charge 
N1          N  0.69826684  0.70609722  0.12626057    -0.02200
C2          C  0.65926901  0.67451992  0.13635315     0.00400
C3          C  0.61930183  0.67745086  0.18134989    -0.22500
C4          C  0.63482121  0.71098966  0.20003206    -0.22700
C5          C  0.68355452  0.72792283  0.16541291     0.00300
H6          H  0.58525945  0.65304420  0.20272713     0.14100
H7          H  0.61494799  0.71799771  0.23803975     0.14100
N8          N  0.84891421  0.79378685  0.91983263    -0.02200
C9          C  0.90623412  0.79925845  0.23570340     0.00400
C10         C  0.92971047  0.81151852  0.18057757    -0.22500
C11         C  0.89388569  0.80592633  0.16116971    -0.22700
C12         C  0.84927413  0.79073751  0.20500827     0.00300
H13         H  0.96853055  0.82517352  0.15675035     0.14100
H14         H  0.89987277  0.81189090  0.11955853     0.14100
N15         N  0.86815012  0.28910151  0.20718268    -0.02200
C16         C  0.83309267  0.31879560  0.20662854     0.00400
C17         C  0.81275475  0.32895060  0.25517538    -0.22500
C18         C  0.83598087  0.30465536  0.28670374    -0.22700
C19         C  0.87000941  0.28062118  0.25630917     0.00300
H20         H  0.78284125  0.35031190  0.26707036     0.14100
H21         H  0.82897337  0.30468816  0.32735062     0.14100
N22         N  0.99947863  0.19695533  0.01540532    -0.02200
C23         C  0.04025384  0.17515849  0.99655929     0.00400
C24         C  0.07657468  0.18822081  0.01304935    -0.22500
C25         C  0.05689948  0.21841800  0.04357321    -0.22700
C26         C  0.00961102  0.22309454  0.04407838     0.00300
H27         H  0.11092921  0.17284269  0.00920242     0.14100
H28         H  0.07336541  0.23181958  0.06678986     0.14100
N29         N  0.34138067  0.54163659  0.28933723    -0.02200
C30         C  0.38254949  0.51922591  0.27416837     0.00400
C31         C  0.40581045  0.51530936  0.30962733    -0.22500
C32         C  0.37823908  0.53625576  0.34783713    -0.22700
C33         C  0.33880362  0.55217479  0.33463950     0.00300
H34         H  0.43942055  0.49912587  0.30767000     0.14100
H35         H  0.40179861  0.56647911  0.02507294     0.14100
N36         N  0.19668923  0.62521547  0.15808565    -0.02200
C37         C  0.15211530  0.64271285  0.16707950     0.00400
C38         C  0.12243931  0.62809066  0.22139084    -0.22500
C39         C  0.14957160  0.60138922  0.24633198    -0.22700
C40         C  0.19467433  0.60012376  0.20662316     0.00300
H41         H  0.08671293  0.63922886  0.24147828     0.14100
H42         H  0.13913525  0.58756997  0.28906591     0.14100
O43         O  0.00185619  0.87265927  0.05055043    -0.70500
O44         O  0.08853908  0.91453860  0.10698076    -0.70700
O45         O  0.03093055  0.95611729  0.05734323    -0.70600
O46         O  0.06056442  0.83061446  0.09872189    -0.70600
O47         O  0.12516071  0.84480686  0.02363716    -0.70500
O48         O  0.08806162  0.96403928  0.32136057    -0.70600
O49         O  0.15046646  0.93004591  0.02975360    -0.70500
O50         O  0.06563206  0.87754773  0.31367960    -0.70700
V51         V  0.04674540  0.89369537  0.07691408     1.35200
V52         V  0.10414393  0.90228462  0.34534106     1.35200
C53         C  0.01840895  0.86862026  0.00371196     0.78700
C54         C  0.13388142  0.93004087  0.07836518     0.78800
C55         C  0.05568323  0.98311682  0.01096275     0.78700
C56         C  0.09848515  0.81665263  0.06842029     0.78600
O57         O  0.54888936  0.43084929  0.10681488    -0.70500
O58         O  0.67736905  0.38930585  0.08901220    -0.70700
O59         O  0.58676055  0.34673129  0.10666789    -0.70600
O60         O  0.63839694  0.47195869  0.08852497    -0.70600
O61         O  0.62372707  0.45432326  0.17328535    -0.70500
O62         O  0.56190620  0.33282629  0.19284360    -0.70600
O63         O  0.65421980  0.36868693  0.17545722    -0.70500
O64         O  0.53224853  0.41790568  0.19169830    -0.70700
V65         V  0.61254813  0.40912148  0.09924712     1.35200
V66         V  0.59352960  0.39359782  0.18155804     1.35200
C67         C  0.51980192  0.43318230  0.15259438     0.78700
C68         C  0.68736298  0.37224816  0.12981536     0.78800
C69         C  0.56410074  0.31896633  0.15309206     0.78700
C70         C  0.63902063  0.48471432  0.12793438     0.78600
N71         N  0.29623568  0.00289589  0.17446212    -0.02200
C72         C  0.24909626  0.98126694  0.19111088     0.00400
C73         C  0.22474154  0.97542400  0.24564970    -0.22500
C74         C  0.25712355  0.99532531  0.26216427    -0.22700
C75         C  0.30050933  0.01248630  0.21744064     0.00300
H76         H  0.18681012  0.95970768  0.27051337     0.14100
H77         H  0.24946258  0.99784434  0.30212214     0.14100
N78         N  0.45058991  0.10057023  0.26079448    -0.02200
C79         C  0.49700122  0.12476316  0.23121012     0.00400
C80         C  0.52739838  0.11297997  0.25958016    -0.22500
C81         C  0.49850883  0.08297052  0.30862278    -0.22700
C82         C  0.45148827  0.07670144  0.30857348     0.00300
H83         H  0.56439369  0.13015874  0.24918728     0.14100
H84         H  0.51763559  0.06950155  0.00851981     0.14100
C85         C  0.33103708  0.05788193  0.08477244    -0.20000
C86         C  0.33395915  0.01718227  0.12148897    -0.08100
C87         C  0.37653561  0.99353905  0.10830934     0.30800
C88         C  0.41671029  0.01162091  0.05925512    -0.20000
C89         C  0.40670042  0.05418609  0.35726084    -0.08100
C90         C  0.36261788  0.07609587  0.36971977     0.30800
F91         F  0.35894703  0.11636163  0.33555673    -0.18600
H92         H  0.29865019  0.07667244  0.09533015     0.19200
H93         H  0.44986129  0.99370435  0.05012783     0.19200
F94         F  0.37930569  0.95347885  0.14343355    -0.18600
C95         C  0.38130610  0.01287478  0.22842845    -0.20000
C96         C  0.34450509  0.03840253  0.21756815    -0.08100
C97         C  0.34655007  0.08683581  0.21459269     0.30800
C98         C  0.38383340  0.10862339  0.22491745    -0.20000
C99         C  0.41892568  0.08215125  0.23901855    -0.08100
C100        C  0.41822186  0.03440775  0.23882849     0.30800
F101        F  0.45170003  0.00779082  0.25199087    -0.18600
H102        H  0.37994029  0.97550274  0.23157789     0.19200
H103        H  0.38349150  0.14528668  0.22503257     0.19200
F104        F  0.31104670  0.11232287  0.20446065    -0.18600
C105        C  0.57065819  0.23950032  0.13717757    -0.20000
C106        C  0.54145599  0.27100764  0.16151446    -0.08100
C107        C  0.49262416  0.25442401  0.19949525     0.30800
C108        C  0.47489652  0.20635281  0.21604453    -0.20000
C109        C  0.50615749  0.17383785  0.19633620    -0.08100
C110        C  0.55350641  0.19110042  0.15495745     0.30800
F111        F  0.58525238  0.16058865  0.13623268    -0.18600
H112        H  0.60850514  0.25166620  0.10799527     0.19200
H113        H  0.43888491  0.19399069  0.24887118     0.19200
F114        F  0.46332777  0.28423686  0.22326132    -0.18600
C115        C  0.21709746  0.94259733  0.08499502    -0.20000
C116        C  0.16576084  0.94720262  0.10242163    -0.08100
C117        C  0.14376847  0.96534775  0.14627645     0.30800
C118        C  0.17210164  0.97781061  0.17250453    -0.20000
C119        C  0.22294765  0.97144386  0.15716066    -0.08100
C120        C  0.24537523  0.95365290  0.11266981     0.30800
F121        F  0.29320309  0.94366146  0.09795756    -0.18600
H122        H  0.23469236  0.92806329  0.05175312     0.19200
H123        H  0.15358476  0.99205849  0.20579435     0.19200
F124        F  0.09446517  0.97090517  0.16427086    -0.18600
C125        C  0.09024016  0.68747537  0.13896995    -0.20000
C126        C  0.14067578  0.68256026  0.13016288    -0.08100
C127        C  0.17725131  0.72086960  0.09546527     0.30800
C128        C  0.16318933  0.76349898  0.07272946    -0.20000
C129        C  0.11257378  0.76936129  0.08561716    -0.08100
C130        C  0.07614010  0.73064313  0.11779167     0.30800
F131        F  0.02687833  0.73491704  0.13005607    -0.18600
H132        H  0.06125138  0.65866329  0.16536721     0.19200
H133        H  0.19180433  0.79313889  0.04819638     0.19200
F134        F  0.22594332  0.71940778  0.08783985    -0.18600
C135        C  0.47779849  0.50519110  0.14862470    -0.20000
C136        C  0.47362533  0.45564561  0.16238795    -0.08100
C137        C  0.42959355  0.42956361  0.20326126     0.30800
C138        C  0.39443674  0.45217508  0.23556582    -0.20000
C139        C  0.40239985  0.50105388  0.22698500    -0.08100
C140        C  0.44230358  0.52793905  0.18087558     0.30800
F141        F  0.45094566  0.57532142  0.17173314    -0.18600
H142        H  0.51193224  0.52593636  0.11778925     0.19200
H143        H  0.36444219  0.43074917  0.27142817     0.19200
F144        F  0.42466139  0.38164596  0.21734233    -0.18600
C145        C  0.24740327  0.53850241  0.22789696    -0.20000
C146        C  0.23836379  0.58580566  0.21824470    -0.08100
C147        C  0.26682567  0.61883641  0.22735795     0.30800
C148        C  0.30278448  0.60439157  0.24775189    -0.20000
C149        C  0.31029356  0.55673038  0.26018224    -0.08100
C150        C  0.28337700  0.52390036  0.24873494     0.30800
F151        F  0.28887347  0.47737564  0.26172576    -0.18600
H152        H  0.22497429  0.51265975  0.22178102     0.19200
H153        H  0.32332440  0.63000028  0.25628756     0.19200
F154        F  0.25766135  0.66457883  0.21948692    -0.18600
C155        C  0.31760762  0.62240989  0.04765947    -0.20000
C156        C  0.30414704  0.58707047  0.02824873    -0.08100
C157        C  0.24837380  0.56176534  0.38463524     0.30800
C158        C  0.21749704  0.58487345  0.08791925    -0.20000
C159        C  0.23145391  0.61866183  0.10876448    -0.06700
C160        C  0.28189427  0.63749014  0.08805610     0.30800
F161        F  0.29697084  0.66898657  0.10852542    -0.18600
H162        H  0.35629204  0.63714235  0.03295318     0.19200
H163        H  0.17916500  0.56848573  0.10519844     0.19200
F164        F  0.23252975  0.52715133  0.36853201    -0.18600
C165        C  0.08426889  0.06709936  0.95593426    -0.20000
C166        C  0.04595598  0.03267796  0.99577962    -0.08100
C167        C  0.00096296  0.04714217  0.02567514     0.30800
C168        C  0.99691874  0.09505564  0.02034002    -0.20000
C169        C  0.03769157  0.12914811  0.98553644    -0.08100
C170        C  0.08024582  0.11512733  0.95087848     0.30800
F171        F  0.11948939  0.14762875  0.91550079    -0.18600
H172        H  0.11908734  0.05693919  0.93188921     0.19200
H173        H  0.96374509  0.10501251  0.04754583     0.19200
F174        F  0.96226980  0.01499080  0.06297134    -0.18600
C175        C  0.80780711  0.38031115  0.14607613    -0.20000
C176        C  0.81137504  0.33233618  0.16582559    -0.08100
C177        C  0.78144802  0.29817562  0.15977165     0.30800
C178        C  0.74405775  0.31184431  0.14064628    -0.20000
C179        C  0.73704006  0.35964165  0.12638696    -0.08100
C180        C  0.77098805  0.39397077  0.12635183     0.30800
F181        F  0.76410524  0.44029122  0.11438577    -0.18600
H182        H  0.83004212  0.40701580  0.15120450     0.19200
H183        H  0.71749132  0.28490625  0.14211692     0.19200
F184        F  0.78350169  0.25149883  0.17939139    -0.18600
C185        C  0.93875324  0.20825994  0.13129455    -0.20000
C186        C  0.97076103  0.24071954  0.08359658    -0.08100
C187        C  0.96598510  0.28898113  0.07509703     0.30800
C188        C  0.93001566  0.30463062  0.11486256    -0.20000
C189        C  0.89928721  0.27226400  0.16358452    -0.08100
C190        C  0.90310887  0.22382905  0.17104041     0.30800
F191        F  0.87294576  0.19182491  0.21718560    -0.18600
H192        H  0.94209615  0.17084260  0.13804421     0.19200
H193        H  0.92759078  0.34210227  0.10885685     0.19200
F194        F  0.99674277  0.32077238  0.02907639    -0.18600
C195        C  0.88418950  0.21979997  0.32756033    -0.20000
C196        C  0.90398010  0.25165243  0.27597108    -0.08100
C197        C  0.95610990  0.25997590  0.24763440     0.30800
C198        C  0.98753855  0.23819345  0.27166381    -0.20000
C199        C  0.96477153  0.20881612  0.99018671    -0.08100
C200        C  0.91571694  0.19862359  0.35173168     0.30800
F201        F  0.89538684  0.16533641  0.06882123    -0.18600
H202        H  0.84416302  0.21309790  0.35015607     0.19200
H203        H  0.02191455  0.25155980  0.91683065     0.19200
F204        F  0.97688546  0.29251337  0.19914695    -0.18600
C205        C  0.90986818  0.83278995  0.30763163    -0.20000
C206        C  0.93181060  0.80810886  0.26983470    -0.08100
C207        C  0.97276002  0.80406643  0.92732371     0.30800
C208        C  0.00308768  0.82115253  0.94886010    -0.20000
C209        C  0.98474113  0.84912252  0.98363811    -0.08100
C210        C  0.93442894  0.85792484  0.99878702     0.30800
F211        F  0.91569483  0.88540959  0.03194629    -0.18600
H212        H  0.87193248  0.84118186  0.31621883     0.19200
H213        H  0.04129418  0.81301714  0.93774521     0.19200
F214        F  0.99212880  0.77801140  0.89272718    -0.18600
C215        C  0.64731017  0.61807602  0.08817781    -0.20000
C216        C  0.66563055  0.62889421  0.12398473    -0.08100
C217        C  0.68048203  0.59275886  0.15682255     0.30800
C218        C  0.67421913  0.54596788  0.15606469    -0.20000
C219        C  0.65373724  0.53460601  0.12200577    -0.08100
C220        C  0.64176643  0.57127679  0.08674729     0.30800
F221        F  0.62042046  0.56141505  0.05446102    -0.18600
H222        H  0.63462565  0.64538417  0.06363355     0.19200
H223        H  0.68343288  0.51835233  0.18368315     0.19200
F224        F  0.69703434  0.60229907  0.19291338    -0.18600
C225        C  0.74870348  0.79192955  0.14973121    -0.20000
C226        C  0.71974929  0.74870149  0.18131428    -0.08100
C227        C  0.73053562  0.72143894  0.22398372     0.30800
C228        C  0.77159532  0.73606238  0.23299247    -0.20000
C229        C  0.80182147  0.77859515  0.20038800    -0.08100
C230        C  0.78925258  0.80710745  0.15943094     0.30800
F231        F  0.81698717  0.84902460  0.12784899    -0.18600
H232        H  0.74087013  0.81314101  0.11659163     0.19200
H233        H  0.78117658  0.71278696  0.26360952     0.19200
F234        F  0.70362528  0.67885061  0.25437645    -0.18600
C235        C  0.72788989  0.76624747  0.03973851    -0.20000
C236        C  0.73691147  0.72711136  0.07426099    -0.08100
C237        C  0.78430273  0.71157085  0.05872066     0.30800
C238        C  0.82177717  0.73451318  0.00848296    -0.20000
C239        C  0.81228764  0.77322328  0.97346927    -0.08100
C240        C  0.76515172  0.78929843  0.99001609     0.30800
F241        F  0.75519381  0.82735120  0.95794225    -0.18600
H242        H  0.69179701  0.77910019  0.05185942     0.19200
H243        H  0.85779336  0.72153435  0.99628993     0.19200
F244        F  0.79413901  0.67442022  0.09199552    -0.18600
N245        N  0.70182391  0.70811841  0.45738550    -0.02200
C246        C  0.66298071  0.67635543  0.46749556     0.00400
C247        C  0.62321246  0.67855930  0.51302764    -0.22500
C248        C  0.63866076  0.71191210  0.53195310    -0.22700
C249        C  0.68716567  0.72945428  0.49699247     0.00300
H250        H  0.58936581  0.65387861  0.53440223     0.14100
H251        H  0.61886391  0.71858444  0.57016756     0.14100
N252        N  0.85661165  0.78618865  0.25106138    -0.02200
C253        C  0.90104836  0.81348777  0.57400046     0.00400
C254        C  0.92533417  0.82729104  0.51895471    -0.22500
C255        C  0.89091942  0.81986448  0.49845228    -0.22700
C256        C  0.84618005  0.80232982  0.54143538     0.00300
H257        H  0.96397848  0.84211544  0.49604084     0.14100
H258        H  0.89815115  0.82536372  0.45671631     0.14100
N259        N  0.86031232  0.28631632  0.54454839    -0.02200
C260        C  0.82385851  0.31462648  0.54492713     0.00400
C261        C  0.80179278  0.32266428  0.59447177    -0.22500
C262        C  0.82545576  0.29873734  0.62568186    -0.22700
C263        C  0.86147739  0.27702414  0.59412897     0.00300
H264        H  0.77086028  0.34281377  0.60696891     0.14100
H265        H  0.81778365  0.29792378  0.66671033     0.14100
N266        N  0.00016906  0.19742737  0.35252434    -0.02200
C267        C  0.03879433  0.17164341  0.34018698     0.00400
C268        C  0.07152046  0.18164765  0.36253027    -0.22500
C269        C  0.05171047  0.21404534  0.38986898    -0.22700
C270        C  0.00786356  0.22324869  0.38284442     0.00300
H271        H  0.10267516  0.16282155  0.36483699     0.14100
H272        H  0.06475741  0.22530099  0.41690112     0.14100
N273        N  0.33560688  0.53958211  0.63088472    -0.02200
C274        C  0.37581109  0.51571993  0.61763707     0.00400
C275        C  0.39911877  0.51337612  0.65286224    -0.22500
C276        C  0.37237575  0.53677187  0.68896079    -0.22700
C277        C  0.33337486  0.55248952  0.67477170     0.00300
H278        H  0.43243415  0.49701020  0.65187785     0.14100
H279        H  0.38589677  0.53918293  0.38187530     0.14100
N280        N  0.19365805  0.61899749  0.49431386    -0.02200
C281        C  0.14857398  0.63568495  0.50357987     0.00400
C282        C  0.11871717  0.62005413  0.55784391    -0.22500
C283        C  0.14611790  0.59376965  0.58258363    -0.22700
C284        C  0.19164221  0.59376246  0.54290964     0.00300
H285        H  0.08271737  0.63054281  0.57827014     0.14100
H286        H  0.13558164  0.57957822  0.62529860     0.14100
O287        O  0.00053085  0.86703816  0.38772437    -0.70500
O288        O  0.08119382  0.91052595  0.45053894    -0.70700
O289        O  0.02529383  0.95097929  0.39768554    -0.70600
O290        O  0.05673223  0.82620229  0.43979434    -0.70600
O291        O  0.12310687  0.84154541  0.36620864    -0.70500
O292        O  0.09108750  0.97287057  0.65563987    -0.70600
O293        O  0.14515550  0.92662451  0.37480230    -0.70500
O294        O  0.06417074  0.88723379  0.64912238    -0.70700
V295        V  0.04220533  0.88894961  0.41749588     1.35200
V296        V  0.10532062  0.91032760  0.67923205     1.35200
C297        C  0.01949307  0.86377155  0.34051937     0.78700
C298        C  0.12682911  0.92626694  0.42346633     0.78800
C299        C  0.05149605  0.97895244  0.35236682     0.78700
C300        C  0.09559775  0.81279087  0.41025882     0.78600
O301        O  0.54309661  0.43363000  0.44274796    -0.70500
O302        O  0.67238230  0.39189979  0.42272896    -0.70700
O303        O  0.58111221  0.34980946  0.44186322    -0.70600
O304        O  0.63391243  0.47481866  0.42175303    -0.70600
O305        O  0.61884027  0.45840973  0.50654670    -0.70500
O306        O  0.55931695  0.33543679  0.52774039    -0.70600
O307        O  0.65106250  0.37383696  0.50883981    -0.70500
O308        O  0.52744309  0.41930001  0.52754860    -0.70700
V309        V  0.60731685  0.41203837  0.43376220     1.35200
V310        V  0.58963489  0.39698896  0.51584022     1.35200
C311        C  0.51394119  0.43436885  0.48926348     0.78700
C312        C  0.68334032  0.37612929  0.46320939     0.78800
C313        C  0.56010292  0.32175011  0.48829383     0.78700
C314        C  0.63505249  0.48804678  0.46063715     0.78600
N315        N  0.29146831  0.00747547  0.51176127    -0.02200
C316        C  0.24389415  0.98616220  0.53014459     0.00400
C317        C  0.22110990  0.98096276  0.58448234    -0.22500
C318        C  0.25485298  0.00027596  0.59967898    -0.22700
C319        C  0.29760056  0.01679940  0.55407693     0.00300
H320        H  0.18344343  0.96522081  0.61007355     0.14100
H321        H  0.24869995  0.00250786  0.63942560     0.14100
N322        N  0.45388121  0.10115454  0.59235080    -0.02200
C323        C  0.49918506  0.12647898  0.56041712     0.00400
C324        C  0.53237324  0.11484504  0.58541888    -0.22500
C325        C  0.50601319  0.08431204  0.63513429    -0.22700
C326        C  0.45779736  0.07760961  0.63859478     0.00300
H327        H  0.56945110  0.13288360  0.57287119     0.14100
H328        H  0.50942733  0.07071457  0.34218758     0.14100
C329        C  0.32353971  0.05904053  0.41984047    -0.20000
C330        C  0.32822054  0.02054442  0.45815075    -0.08100
C331        C  0.37115180  0.99742625  0.44517690     0.30800
C332        C  0.41008087  0.01410583  0.39499426    -0.20000
C333        C  0.41431608  0.05783800  0.68925570    -0.08100
C334        C  0.37268505  0.08294336  0.70252804     0.30800
F335        F  0.37145381  0.12463893  0.66882549    -0.18600
H336        H  0.29069218  0.07727615  0.42995170     0.19200
H337        H  0.44358288  0.99668333  0.38618892     0.19200
F338        F  0.37551116  0.95920630  0.48153158    -0.18600
C339        C  0.37720742  0.01358578  0.56747618    -0.20000
C340        C  0.34298647  0.04099424  0.55335341    -0.08100
C341        C  0.34817851  0.08987015  0.54755868     0.30800
C342        C  0.38656123  0.11057681  0.55722548    -0.20000
C343        C  0.41958996  0.08257844  0.57360415    -0.08100
C344        C  0.41517453  0.03399138  0.57726994     0.30800
F345        F  0.44635714  0.00569462  0.59292686    -0.18600
H346        H  0.37310243  0.97580425  0.57336221     0.19200
H347        H  0.38882850  0.14780126  0.55471196     0.19200
F348        F  0.31452201  0.11696189  0.53547252    -0.18600
C349        C  0.56580484  0.24409804  0.46792835    -0.20000
C350        C  0.53785885  0.27369741  0.49671484    -0.08100
C351        C  0.49081459  0.25533324  0.53765825     0.30800
C352        C  0.47438017  0.20706631  0.55308488    -0.20000
C353        C  0.50504888  0.17628276  0.52862876    -0.08100
C354        C  0.54980515  0.19556411  0.48407861     0.30800
F355        F  0.58047282  0.16674044  0.46001409    -0.18600
H356        H  0.60207432  0.25779712  0.43595487     0.19200
H357        H  0.44016068  0.19313249  0.58805579     0.19200
F358        F  0.46215350  0.28361993  0.56479173    -0.18600
C359        C  0.20932634  0.93940409  0.43066467    -0.20000
C360        C  0.15786294  0.94349320  0.44836560    -0.08100
C361        C  0.13604843  0.96284632  0.49124011     0.30800
C362        C  0.16523330  0.97842165  0.51504554    -0.20000
C363        C  0.21653704  0.97342691  0.49863765    -0.08100
C364        C  0.23824585  0.95305958  0.45628332     0.30800
F365        F  0.28611316  0.94320689  0.44179300    -0.18600
H366        H  0.22673986  0.92359869  0.39844028     0.19200
H367        H  0.14713525  0.99411376  0.54721839     0.19200
F368        F  0.08644308  0.96709645  0.51009097    -0.18600
C369        C  0.08647129  0.68264366  0.47836231    -0.20000
C370        C  0.13700343  0.67663686  0.46795567    -0.08100
C371        C  0.17378833  0.71481304  0.43337861     0.30800
C372        C  0.15991467  0.75831957  0.41255312    -0.20000
C373        C  0.10933871  0.76513513  0.42707118    -0.08100
C374        C  0.07261676  0.72659957  0.45922798     0.30800
F375        F  0.02332560  0.73164808  0.47329934    -0.18600
H376        H  0.05725608  0.65394954  0.50449397     0.19200
H377        H  0.18881042  0.78767016  0.38782884     0.19200
F378        F  0.22277433  0.71204444  0.42362741    -0.18600
C379        C  0.46801969  0.50388747  0.48834392    -0.20000
C380        C  0.46623503  0.45449946  0.50141730    -0.08100
C381        C  0.42428711  0.42690230  0.54449656     0.30800
C382        C  0.38969412  0.44812371  0.57924175    -0.20000
C383        C  0.39587283  0.49709196  0.57074168    -0.08100
C384        C  0.43305574  0.52520685  0.52302182     0.30800
F385        F  0.43992726  0.57269370  0.51406965    -0.18600
H386        H  0.50046623  0.52583821  0.45588974     0.19200
H387        H  0.36154607  0.42584738  0.61610850     0.19200
F388        F  0.42149829  0.37905897  0.55801143    -0.18600
C389        C  0.24103092  0.53218577  0.57139226    -0.20000
C390        C  0.23513022  0.57999027  0.55525845    -0.08100
C391        C  0.26515290  0.61431564  0.56078659     0.30800
C392        C  0.29999443  0.60084645  0.58320071    -0.20000
C393        C  0.30477171  0.55302243  0.60117446    -0.08100
C394        C  0.27595921  0.51865875  0.59404884     0.30800
F395        F  0.27870096  0.47207469  0.61298928    -0.18600
H396        H  0.21692369  0.50536949  0.56885658     0.19200
H397        H  0.32183486  0.62751794  0.58883183     0.19200
F398        F  0.25824042  0.66057587  0.54797700    -0.18600
C399        C  0.31448705  0.61069196  0.38706784    -0.20000
C400        C  0.29974380  0.57630447  0.36737401    -0.08100
C401        C  0.24303745  0.56283424  0.72336683     0.30800
C402        C  0.21301622  0.57971978  0.42287711    -0.20000
C403        C  0.22817527  0.61191757  0.44495401    -0.06700
C404        C  0.27925579  0.62832324  0.42534671     0.30800
F405        F  0.29540434  0.66002961  0.44476239    -0.18600
H406        H  0.35373550  0.62261096  0.37426787     0.19200
H407        H  0.17400299  0.56574160  0.43844980     0.19200
F408        F  0.22742850  0.52664312  0.70932328    -0.18600
C409        C  0.08076729  0.06323837  0.29863074    -0.20000
C410        C  0.04204812  0.02888510  0.33795286    -0.08100
C411        C  0.99744801  0.04378754  0.36835102     0.30800
C412        C  0.99422520  0.09185293  0.36375719    -0.20000
C413        C  0.03537918  0.12564593  0.32919575    -0.08100
C414        C  0.07768131  0.11127384  0.29462137     0.30800
F415        F  0.11759999  0.14339995  0.26019157    -0.18600
H416        H  0.11524469  0.05284330  0.27409519     0.19200
H417        H  0.96135696  0.10217162  0.39105613     0.19200
F418        F  0.95833505  0.01187798  0.40528372    -0.18600
C419        C  0.80250796  0.37851268  0.48295178    -0.20000
C420        C  0.80354357  0.33000908  0.50313256    -0.08100
C421        C  0.77238364  0.29751185  0.49641683     0.30800
C422        C  0.73697767  0.31343162  0.47506924    -0.20000
C423        C  0.73249866  0.36182949  0.45998294    -0.08100
C424        C  0.76723842  0.39441937  0.46158026     0.30800
F425        F  0.76252856  0.44126053  0.44957461    -0.18600
H426        H  0.82544691  0.40398155  0.48896770     0.19200
H427        H  0.70946303  0.28778076  0.47593987     0.19200
F428        F  0.77119085  0.25045388  0.51750607    -0.18600
C429        C  0.93809279  0.20779499  0.47044667    -0.20000
C430        C  0.96686697  0.24015332  0.42123624    -0.08100
C431        C  0.95663023  0.28716822  0.41059391     0.30800
C432        C  0.91929614  0.30191489  0.45034431    -0.20000
C433        C  0.89205875  0.26979531  0.50073514    -0.08100
C434        C  0.90060852  0.22221035  0.50962329     0.30800
F435        F  0.87359774  0.18990834  0.55691081    -0.18600
H436        H  0.94523094  0.17124333  0.47871655     0.19200
H437        H  0.91327078  0.33874110  0.44287072     0.19200
F438        F  0.98365443  0.31885599  0.36278679    -0.18600
C439        C  0.88031607  0.21854706  0.66403370    -0.20000
C440        C  0.89769602  0.25075631  0.61264053    -0.08100
C441        C  0.94950462  0.26159903  0.58281727     0.30800
C442        C  0.98288508  0.24242595  0.60532170    -0.20000
C443        C  0.96765581  0.20872163  0.32439134    -0.08100
C444        C  0.91386012  0.19978151  0.68662484     0.30800
F445        F  0.89563792  0.17046115  0.40280314    -0.18600
H446        H  0.84057600  0.20954665  0.68758896     0.19200
H447        H  0.02761614  0.24720951  0.25079317     0.19200
F448        F  0.96802544  0.29403093  0.53414845    -0.18600
C449        C  0.90551611  0.84546254  0.64695853    -0.20000
C450        C  0.92626516  0.82046291  0.60918734    -0.08100
C451        C  0.98193702  0.79961719  0.25791270     0.30800
C452        C  0.01001657  0.81748053  0.28142696    -0.20000
C453        C  0.98863571  0.84365736  0.31766952    -0.08100
C454        C  0.93794682  0.85044284  0.33143360     0.30800
F455        F  0.91661652  0.87719881  0.36468072    -0.18600
H456        H  0.86775073  0.85449605  0.65585677     0.19200
H457        H  0.04878171  0.81121016  0.27088047     0.19200
F458        F  0.00424674  0.77513030  0.22230467    -0.18600
C459        C  0.65069359  0.62159766  0.41771579    -0.20000
C460        C  0.66920142  0.63130656  0.45391388    -0.08100
C461        C  0.68279842  0.59430415  0.48699039     0.30800
C462        C  0.67411105  0.54773451  0.48693725    -0.20000
C463        C  0.65253210  0.53745624  0.45329225    -0.08100
C464        C  0.64292065  0.57491825  0.41683025     0.30800
F465        F  0.62164472  0.56615308  0.38400403    -0.18600
H466        H  0.63925775  0.64969731  0.39273591     0.19200
H467        H  0.68207493  0.51948459  0.51500401     0.19200
F468        F  0.69994534  0.60285862  0.52308151    -0.18600
C469        C  0.75034434  0.79541974  0.48108035    -0.20000
C470        C  0.72298628  0.75148495  0.51243900    -0.08100
C471        C  0.73346061  0.72586737  0.55606913     0.30800
C472        C  0.77228525  0.74325412  0.56681444    -0.20000
C473        C  0.80061996  0.78689506  0.53490318    -0.08100
C474        C  0.78865822  0.81328487  0.49236366     0.30800
F475        F  0.81470520  0.85594352  0.46090985    -0.18600
H476        H  0.74267084  0.81544410  0.44730543     0.19200
H477        H  0.78165784  0.72135123  0.59837010     0.19200
F478        F  0.70821769  0.68254218  0.58618594    -0.18600
C479        C  0.73588762  0.76778455  0.37031902    -0.20000
C480        C  0.74197600  0.72768667  0.40604881    -0.08100
C481        C  0.78758084  0.70876407  0.39167065     0.30800
C482        C  0.82611980  0.72923562  0.34137074    -0.20000
C483        C  0.81942887  0.76870027  0.30498396    -0.08100
C484        C  0.77423671  0.78834295  0.32042990     0.30800
F485        F  0.76710849  0.82717909  0.28691926    -0.18600
H486        H  0.70113327  0.78307719  0.38140404     0.19200
H487        H  0.86065104  0.71361263  0.33007066     0.19200
F488        F  0.79456534  0.67054792  0.42604794    -0.18600
N489        N  0.69501640  0.71263270  0.79078137    -0.02200
C490        C  0.65621982  0.68178478  0.79879817     0.00400
C491        C  0.61573538  0.68359784  0.84399090    -0.22500
C492        C  0.63077961  0.71563477  0.86484046    -0.22700
C493        C  0.67963612  0.73295814  0.83114212     0.00300
H494        H  0.58162723  0.65920797  0.86406170     0.14100
H495        H  0.61037707  0.72148964  0.90337017     0.14100
N496        N  0.85210061  0.79813439  0.58825678    -0.02200
C497        C  0.89785023  0.80925281  0.90470437     0.00400
C498        C  0.92107755  0.82469515  0.84959540    -0.22500
C499        C  0.88564899  0.81842307  0.82989498    -0.22700
C500        C  0.84171321  0.79977819  0.87355004     0.00300
H501        H  0.95947036  0.83978193  0.82645265     0.14100
H502        H  0.89152937  0.82549687  0.78822111     0.14100
N503        N  0.85938374  0.28966207  0.88103864    -0.02200
C504        C  0.82334529  0.31870040  0.88264216     0.00400
C505        C  0.80229337  0.32608598  0.93263029    -0.22500
C506        C  0.82600733  0.30089522  0.96298490    -0.22700
C507        C  0.86108767  0.27917292  0.93046128     0.00300
H508        H  0.77191878  0.34662092  0.94599788     0.14100
H509        H  0.81903059  0.29926417  0.00408196     0.14100
N510        N  0.99939624  0.20496762  0.68452814    -0.02200
C511        C  0.04082988  0.18313748  0.66906041     0.00400
C512        C  0.07522321  0.19867654  0.68653616    -0.22500
C513        C  0.05346805  0.23027165  0.71435248    -0.22700
C514        C  0.00683911  0.23347359  0.71236493     0.00300
H515        H  0.10932422  0.18391695  0.68566290     0.14100
H516        H  0.06773162  0.24497686  0.73840145     0.14100
N517        N  0.34216550  0.55282021  0.94942003    -0.02200
C518        C  0.38645580  0.53676507  0.92734968     0.00400
C519        C  0.41618636  0.54019871  0.95514638    -0.22500
C520        C  0.38954282  0.55936068  0.99546692    -0.22700
C521        C  0.34417567  0.56691603  0.99118021     0.00300
H522        H  0.45317374  0.52948213  0.94715162     0.14100
H523        H  0.38022886  0.54134499  0.72231920     0.14100
N524        N  0.18738465  0.62383527  0.82922426    -0.02200
C525        C  0.14260599  0.64089964  0.83721284     0.00400
C526        C  0.11227942  0.62634971  0.89143388    -0.22500
C527        C  0.13919042  0.60056251  0.91732956    -0.22700
C528        C  0.18483643  0.59961163  0.87836529     0.00300
H529        H  0.07643272  0.63751950  0.91103774     0.14100
H530        H  0.12831844  0.58754592  0.96020296     0.14100
O531        O  0.00072817  0.87768380  0.72432655    -0.70500
O532        O  0.08596592  0.91937101  0.78351715    -0.70700
O533        O  0.02943001  0.96109612  0.73253604    -0.70600
O534        O  0.05783602  0.83503340  0.77442076    -0.70600
O535        O  0.12246199  0.84869845  0.69940484    -0.70500
O536        O  0.09070994  0.96740539  0.97919934    -0.70600
O537        O  0.14877258  0.93310879  0.70721336    -0.70500
O538        O  0.06454909  0.88090835  0.97497575    -0.70700
V539        V  0.04475991  0.89845694  0.75229382     1.35200
V540        V  0.10648086  0.90566296  0.00318891     1.35200
C541        C  0.01800496  0.87439116  0.67709687     0.78700
C542        C  0.13162541  0.93427817  0.75532802     0.78800
C543        C  0.05566980  0.98860708  0.68693656     0.78700
C544        C  0.09509906  0.82043707  0.74384548     0.78600
O545        O  0.54529399  0.43735503  0.77035873    -0.70500
O546        O  0.67203614  0.39419701  0.75958889    -0.70700
O547        O  0.58199092  0.35221633  0.77603049    -0.70600
O548        O  0.63483756  0.47811898  0.75282202    -0.70600
O549        O  0.61524002  0.46458945  0.83827283    -0.70500
O550        O  0.55727130  0.34061305  0.86191117    -0.70600
O551        O  0.64770194  0.37980195  0.84580415    -0.70500
O552        O  0.52505152  0.42513697  0.85577028    -0.70700
V553        V  0.60811160  0.41496370  0.76625569     1.35200
V554        V  0.58680537  0.40268025  0.84864026     1.35200
C555        C  0.51448750  0.44002248  0.81529842     0.78700
C556        C  0.68120150  0.38026225  0.80142061     0.78800
C557        C  0.56017175  0.32519383  0.82295541     0.78700
C558        C  0.63338707  0.49294153  0.79165289     0.78600
N559        N  0.29805672  0.01398978  0.84305701    -0.02200
C560        C  0.24907765  0.99731122  0.85981728     0.00400
C561        C  0.22441059  0.99771355  0.91256272    -0.22500
C562        C  0.25848678  0.01610260  0.92793743    -0.22700
C563        C  0.30319963  0.02637703  0.88426054     0.00300
H564        H  0.18514567  0.98736032  0.93692614     0.14100
H565        H  0.25114943  0.02246563  0.96625527     0.14100
N566        N  0.45839833  0.10258142  0.92825509    -0.02200
C567        C  0.50382849  0.12849412  0.89992860     0.00400
C568        C  0.53461986  0.11583955  0.92765967    -0.22500
C569        C  0.50658869  0.08304054  0.97525105    -0.22700
C570        C  0.45971424  0.07642083  0.97487234     0.00300
H571        H  0.57098404  0.13382336  0.91824360     0.14100
H572        H  0.51920355  0.07270600  0.66707264     0.14100
C573        C  0.33346899  0.06704557  0.75244352    -0.20000
C574        C  0.33538858  0.02632867  0.78983563    -0.08100
C575        C  0.37644845  0.00070417  0.77664234     0.30800
C576        C  0.41579655  0.01646031  0.72651229    -0.20000
C577        C  0.41470820  0.05349491  0.02300448    -0.08100
C578        C  0.37122312  0.07628275  0.03596860     0.30800
F579        F  0.36910403  0.11849552  0.00380817    -0.18600
H580        H  0.30244163  0.08747756  0.76300414     0.19200
H581        H  0.44765276  0.99685168  0.71700278     0.19200
F582        F  0.37823074  0.96059261  0.81232800    -0.18600
C583        C  0.38548530  0.02204702  0.89164398    -0.20000
C584        C  0.34904685  0.04968030  0.88327276    -0.08100
C585        C  0.35291711  0.09744593  0.88267677     0.30800
C586        C  0.39146358  0.11640659  0.89325726    -0.20000
C587        C  0.42587769  0.08761346  0.90546303    -0.08100
C588        C  0.42366634  0.04078952  0.90239871     0.30800
F589        F  0.45682313  0.01225543  0.91328957    -0.18600
H590        H  0.38260289  0.98508140  0.89321964     0.19200
H591        H  0.39237512  0.15242759  0.89536810     0.19200
F592        F  0.31795466  0.12494971  0.87464299    -0.18600
C593        C  0.57029798  0.24625970  0.80643784    -0.20000
C594        C  0.53995897  0.27617632  0.83266505    -0.08100
C595        C  0.49282778  0.25732762  0.87312897     0.30800
C596        C  0.47816381  0.20868004  0.89019445    -0.20000
C597        C  0.51055011  0.17807453  0.86764889    -0.08100
C598        C  0.55598437  0.19736812  0.82420362     0.30800
F599        F  0.58840552  0.16859683  0.80240674    -0.18600
H600        H  0.60685685  0.26027152  0.77524699     0.19200
H601        H  0.44374547  0.19465880  0.92471678     0.19200
F602        F  0.46224771  0.28567279  0.89827532    -0.18600
C603        C  0.21445420  0.94653648  0.76263639    -0.20000
C604        C  0.16364064  0.95311753  0.77820443    -0.08100
C605        C  0.14314254  0.97723636  0.81688062     0.30800
C606        C  0.17237050  0.99330622  0.84030521    -0.20000
C607        C  0.22253489  0.98473913  0.82736734    -0.08100
C608        C  0.24353106  0.96133410  0.78756137     0.30800
F609        F  0.29071328  0.94979910  0.77488202    -0.18600
H610        H  0.23104502  0.92797169  0.73290256     0.19200
H611        H  0.15508800  0.01211582  0.86949819     0.19200
F612        F  0.09471916  0.98576885  0.83189451    -0.18600
C613        C  0.08205901  0.68946340  0.81054854    -0.20000
C614        C  0.13223317  0.68202950  0.80058030    -0.08100
C615        C  0.16998065  0.71929706  0.76548188     0.30800
C616        C  0.15741851  0.76355934  0.74487815    -0.20000
C617        C  0.10727886  0.77195628  0.75978914    -0.08100
C618        C  0.06957024  0.73409717  0.79125101     0.30800
F619        F  0.02066552  0.74044541  0.80433759    -0.18600
H620        H  0.05209838  0.66139225  0.83657040     0.19200
H621        H  0.18708677  0.79224606  0.72009239     0.19200
F622        F  0.21882198  0.71498430  0.75495106    -0.18600
C623        C  0.47527511  0.51325276  0.80441004    -0.20000
C624        C  0.46911858  0.46371874  0.82237878    -0.08100
C625        C  0.42448092  0.44049830  0.86481338     0.30800
C626        C  0.39148366  0.46619065  0.89496614    -0.20000
C627        C  0.40216174  0.51529254  0.88250957    -0.08100
C628        C  0.44204066  0.53905036  0.83449628     0.30800
F629        F  0.45318508  0.58658956  0.82137293    -0.18600
H630        H  0.50968949  0.53192542  0.77208319     0.19200
H631        H  0.36172732  0.44697457  0.93237810     0.19200
F632        F  0.41718990  0.39260514  0.88255312    -0.18600
C633        C  0.23725718  0.53993507  0.90490172    -0.20000
C634        C  0.22847571  0.58711178  0.89098333    -0.08100
C635        C  0.25842853  0.62258338  0.89473501     0.30800
C636        C  0.29742606  0.61110938  0.91119222    -0.20000
C637        C  0.30608190  0.56397819  0.92591207    -0.08100
C638        C  0.27587325  0.52827494  0.92254283     0.30800
F639        F  0.28107852  0.48219128  0.94029763    -0.18600
H640        H  0.21316822  0.51218591  0.90387556     0.19200
H641        H  0.31986523  0.63877779  0.91458208     0.19200
F642        F  0.24858306  0.66811517  0.88448581    -0.18600
C643        C  0.30887680  0.61329673  0.72420117    -0.20000
C644        C  0.29435489  0.57773452  0.70584208    -0.08100
C645        C  0.25344634  0.56846887  0.04879869     0.30800
C646        C  0.20746119  0.58192088  0.76015288    -0.20000
C647        C  0.22229345  0.61549122  0.78080209    -0.06700
C648        C  0.27340280  0.63188956  0.76132438     0.30800
F649        F  0.28930946  0.66445659  0.77991374    -0.18600
H650        H  0.34809655  0.62530860  0.71143826     0.19200
H651        H  0.16849570  0.56772121  0.77595416     0.19200
F652        F  0.23906440  0.53143079  0.03518552    -0.18600
C653        C  0.08634372  0.07278422  0.63305282    -0.20000
C654        C  0.04719205  0.03870337  0.67219291    -0.08100
C655        C  0.00238628  0.05381443  0.70155782     0.30800
C656        C  0.99880038  0.10187805  0.69557690    -0.20000
C657        C  0.03982780  0.13570488  0.66078852    -0.08100
C658        C  0.08293043  0.12100296  0.62770947     0.30800
F659        F  0.12282558  0.15303055  0.59291869    -0.18600
H660        H  0.12106974  0.06209467  0.60940546     0.19200
H661        H  0.96537283  0.11227267  0.72189061     0.19200
F662        F  0.96310473  0.02215758  0.73857232    -0.18600
C663        C  0.79813721  0.38382741  0.82598497    -0.20000
C664        C  0.80233382  0.33547255  0.84167488    -0.08100
C665        C  0.77369263  0.30330759  0.83141306     0.30800
C666        C  0.73747192  0.31900034  0.81115589    -0.20000
C667        C  0.73001561  0.36686401  0.80049996    -0.08100
C668        C  0.76217629  0.39947477  0.80571221     0.30800
F669        F  0.75459189  0.44565076  0.79762589    -0.18600
H670        H  0.81919791  0.40894739  0.83461302     0.19200
H671        H  0.71202939  0.29325352  0.80890497     0.19200
F672        F  0.77586185  0.25623341  0.84780865    -0.18600
C673        C  0.93793402  0.21459013  0.80134665    -0.20000
C674        C  0.96542326  0.24827986  0.75265408    -0.08100
C675        C  0.95416477  0.29499039  0.74449869     0.30800
C676        C  0.91715003  0.30810536  0.78597397    -0.20000
C677        C  0.89117710  0.27470944  0.83581600    -0.08100
C678        C  0.90078475  0.22742466  0.84238014     0.30800
F679        F  0.87510247  0.19383710  0.88905183    -0.18600
H680        H  0.94598540  0.17829065  0.80785676     0.19200
H681        H  0.91036435  0.34469829  0.78015151     0.19200
F682        F  0.97978537  0.32793468  0.69723013    -0.18600
C683        C  0.87961599  0.21774689  0.99818679    -0.20000
C684        C  0.89707467  0.25171365  0.94793386    -0.08100
C685        C  0.94880179  0.26259177  0.91804863     0.30800
C686        C  0.98219038  0.24082466  0.93892268    -0.20000
C687        C  0.96534696  0.21302991  0.65798552    -0.08100
C688        C  0.91318696  0.19640311  0.01927455     0.30800
F689        F  0.89606909  0.17069484  0.73726317    -0.18600
H690        H  0.83987290  0.20902669  0.02190253     0.19200
H691        H  0.02256306  0.25352233  0.58329191     0.19200
F692        F  0.96725451  0.29711598  0.87093842    -0.18600
C693        C  0.90412695  0.84120815  0.97657159    -0.20000
C694        C  0.92360480  0.81537715  0.93945415    -0.08100
C695        C  0.97603537  0.81071241  0.59705602     0.30800
C696        C  0.00521887  0.82800791  0.61975903    -0.20000
C697        C  0.98540025  0.85487171  0.65555669    -0.08100
C698        C  0.93483148  0.86266090  0.67001075     0.30800
F699        F  0.91490663  0.88990329  0.70312391    -0.18600
H700        H  0.86667662  0.85111933  0.98559113     0.19200
H701        H  0.04375685  0.82086563  0.60874767     0.19200
F702        F  0.99713195  0.78588132  0.56146175    -0.18600
C703        C  0.64240736  0.62600863  0.75069580    -0.20000
C704        C  0.66296149  0.63689189  0.78485065    -0.08100
C705        C  0.67994689  0.60097074  0.81563441     0.30800
C706        C  0.67284936  0.55422090  0.81536272    -0.20000
C707        C  0.64969730  0.54275812  0.78357954    -0.08100
C708        C  0.63647466  0.57921179  0.74934996     0.30800
F709        F  0.61350211  0.56906830  0.71854447    -0.18600
H710        H  0.62828643  0.65318856  0.72760293     0.19200
H711        H  0.68329153  0.52664332  0.84190205     0.19200
F712        F  0.69891588  0.61051854  0.84994893    -0.18600
C713        C  0.73973367  0.79903102  0.82077253    -0.20000
C714        C  0.71514564  0.75330767  0.84804638    -0.08100
C715        C  0.72954865  0.72415526  0.88686185     0.30800
C716        C  0.76966133  0.74000048  0.89661642    -0.20000
C717        C  0.79536072  0.78534135  0.86837726    -0.08100
C718        C  0.77944674  0.81520607  0.83109307     0.30800
F719        F  0.80300944  0.85963288  0.80387189    -0.18600
H720        H  0.72913350  0.82158145  0.79044384     0.19200
H721        H  0.78203763  0.71601637  0.92440487     0.19200
F722        F  0.70683713  0.67925551  0.91279523    -0.18600
C723        C  0.72891760  0.77377449  0.70497893    -0.20000
C724        C  0.73558133  0.73365017  0.74018104    -0.08100
C725        C  0.78246999  0.71701415  0.72674950     0.30800
C726        C  0.82165158  0.73957135  0.67760726    -0.20000
C727        C  0.81437477  0.77896865  0.64159146    -0.08100
C728        C  0.76786402  0.79640408  0.65631226     0.30800
F729        F  0.76000891  0.83504181  0.62315462    -0.18600
H730        H  0.69324922  0.78751873  0.71556976     0.19200
H731        H  0.85716894  0.72556985  0.66682659     0.19200
F732        F  0.79011444  0.67904046  0.76089903    -0.18600
loop_ 
_geom_bond_atom_site_label_1 
_geom_bond_atom_site_label_2 
_geom_bond_distance 
_geom_bond_site_symmetry_2 
_ccdc_geom_bond_type 
N1            C5   1.352       .  A
N1            C2   1.352       .  A
N1          C236   1.439       .  S
C2            C3   1.384       .  A
C2          C216   1.472       .  S
C3            C4   1.375       .  A
C3            H6   1.083       .  S
C4            C5   1.380       .  A
C4            H7   1.083       .  S
C5          C226   1.468       .  S
N8          C500   1.360       .  A
N8          C497   1.358       .  A
N8          C239   1.444       .  S
C9          N252   1.360       .  A
C9           C10   1.382       .  A
C9          C206   1.481       .  S
C10          C11   1.369       .  A
C10          H13   1.081       .  S
C11          C12   1.381       .  A
C11          H14   1.081       .  S
C12         N252   1.362       .  A
C12         C229   1.480       .  S
N15          C19   1.359       .  A
N15          C16   1.355       .  A
N15         C189   1.436       .  S
C16          C17   1.382       .  A
C16         C176   1.477       .  S
C17          C18   1.374       .  A
C17          H20   1.082       .  S
C18          C19   1.382       .  A
C18          H21   1.082       .  S
C19         C196   1.483       .  S
N22          C26   1.349   1_655  A
N22          C23   1.351   1_654  A
N22         C199   1.434   1_554  S
C23          C24   1.387   1_556  A
C23         C169   1.475       .  S
C24          C25   1.377       .  A
C24          H27   1.082       .  S
C25          C26   1.378       .  A
C25          H28   1.082       .  S
C26         C186   1.468   1_455  S
N29          C33   1.361       .  A
N29          C30   1.355       .  A
N29         C149   1.436       .  S
C30          C31   1.381       .  A
C30         C139   1.476       .  S
C31          C32   1.374       .  A
C31          H34   1.082       .  S
C32          C33   1.384       .  A
C32         H279   1.082       .  S
C33         C400   1.490       .  S
H35         C520   1.082   1_554  S
N36          C40   1.353       .  A
N36          C37   1.360       .  A
N36         C159   1.440       .  S
C37          C38   1.388       .  A
C37         C126   1.487       .  S
C38          C39   1.371       .  A
C38          H41   1.082       .  S
C39          C40   1.376       .  A
C39          H42   1.083       .  S
C40         C146   1.466       .  S
O43          V51   1.890       .  S
O43          C53   1.259       .  A
O44          V51   1.892       .  S
O44          C54   1.263       .  A
O45          V51   1.897       .  S
O45          C55   1.265       .  A
O46          V51   1.903       .  S
O46          C56   1.265       .  A
O47         V540   1.892       .  S
O47          C56   1.261       .  A
O48          V52   1.903       .  S
O48         C299   1.265       .  A
O49         V540   1.916       .  S
O49          C54   1.267       .  A
O50          V52   1.905       .  S
O50         C297   1.267       .  A
V51         V540   2.085       .  T
V52         O291   1.895       .  S
V52         O293   1.908       .  S
V52         V295   2.085       .  T
C53         C209   1.473   1_454  S
C53         O538   1.269   1_554  A
C54         C116   1.484       .  S
C55         C166   1.477   1_564  S
C55         O536   1.263   1_554  A
C56         C129   1.472       .  S
O57          V65   1.920       .  S
O57          C67   1.268       .  A
O58          V65   1.920       .  S
O58          C68   1.268       .  A
O59          V65   1.909       .  S
O59          C69   1.265       .  A
O60          V65   1.898       .  S
O60          C70   1.263       .  A
O61          V66   1.905       .  S
O61          C70   1.267       .  A
O62          V66   1.899       .  S
O62          C69   1.265       .  A
O63          V66   1.886       .  S
O63          C68   1.260       .  A
O64          V66   1.879       .  S
O64          C67   1.260       .  A
V65          V66   2.087       .  T
C67         C136   1.469       .  S
C68         C179   1.470       .  S
C69         C106   1.476       .  S
C70         C219   1.477       .  S
N71          C75   1.356       .  A
N71          C72   1.359   1_545  A
N71          C86   1.428       .  S
C72          C73   1.389       .  A
C72         C119   1.499       .  S
C73          C74   1.377       .  A
C73          H76   1.078       .  S
C74          C75   1.377   1_565  A
C74          H77   1.082       .  S
C75          C96   1.483       .  S
N78          C82   1.356       .  A
N78          C79   1.361       .  A
N78          C99   1.447       .  S
C79          C80   1.388       .  A
C79         C109   1.481       .  S
C80          C81   1.370       .  A
C80          H83   1.083       .  S
C81          C82   1.377       .  A
C81         H328   1.082       .  S
C82          C89   1.479       .  S
H84         C569   1.082   1_554  S
C85          C86   1.395       .  A
C85         C578   1.394       .  A
C85          H92   1.083       .  S
C86          C87   1.403   1_545  A
C87          C88   1.397   1_565  A
C87          F94   1.357       .  S
C88         C577   1.403       .  A
C88          H93   1.083   1_545  S
C89          C90   1.409       .  A
C89         C332   1.403       .  A
C90         C329   1.397       .  A
C90          F91   1.356       .  S
C95          C96   1.397       .  A
C95         C100   1.397       .  A
C95         H102   1.083   1_545  S
C96          C97   1.410       .  A
C97          C98   1.408       .  A
C97         F104   1.357       .  S
C98          C99   1.404       .  A
C98         H103   1.083       .  S
C99         C100   1.411       .  A
C100        F101   1.357       .  S
C105        C106   1.403       .  A
C105        C110   1.402       .  A
C105        H112   1.084       .  S
C106        C107   1.405       .  A
C107        C108   1.399       .  A
C107        F114   1.357       .  S
C108        C109   1.405       .  A
C108        H113   1.084       .  S
C109        C110   1.409       .  A
C110        F111   1.357       .  S
C115        C116   1.407       .  A
C115        C120   1.409       .  A
C115        H122   1.083       .  S
C116        C117   1.404       .  A
C117        C118   1.393       .  A
C117        F124   1.358       .  S
C118        C119   1.407       .  A
C118        H123   1.083       .  S
C119        C120   1.414       .  A
C120        F121   1.355       .  S
C125        C126   1.409       .  A
C125        C130   1.397       .  A
C125        H132   1.083       .  S
C126        C127   1.409       .  A
C127        C128   1.398       .  A
C127        F134   1.353       .  S
C128        C129   1.402       .  A
C128        H133   1.084       .  S
C129        C130   1.402       .  A
C130        F131   1.358       .  S
C135        C136   1.405       .  A
C135        C140   1.403       .  A
C135        H142   1.086       .  S
C136        C137   1.404       .  A
C137        C138   1.396       .  A
C137        F144   1.357       .  S
C138        C139   1.401       .  A
C138        H143   1.085       .  S
C139        C140   1.406       .  A
C140        F141   1.357       .  S
C145        C146   1.400       .  A
C145        C150   1.400       .  A
C145        H152   1.083       .  S
C146        C147   1.401       .  A
C147        C148   1.391       .  A
C147        F154   1.358       .  S
C148        C149   1.401       .  A
C148        H153   1.083       .  S
C149        C150   1.408       .  A
C150        F151   1.355       .  S
C155        C156   1.406       .  A
C155        C160   1.398       .  A
C155        H162   1.082       .  S
C156        C645   1.409       .  A
C156        C521   1.491   1_554  S
C157        C400   1.408       .  A
C157        C402   1.405       .  A
C157        F164   1.357       .  S
C158        C159   1.403       .  A
C158        C645   1.401       .  A
C158        H163   1.082       .  S
C159        C160   1.404       .  A
C160        F161   1.356       .  S
C165        C166   1.407       .  A
C165        C170   1.399       .  A
C165        H172   1.083       .  S
C166        C167   1.406   1_556  A
C167        C168   1.395   1_455  A
C167        F174   1.358   1_455  S
C168        C169   1.403   1_654  A
C168        H173   1.083       .  S
C169        C170   1.404       .  A
C170        F171   1.357       .  S
C175        C176   1.403       .  A
C175        C180   1.398       .  A
C175        H182   1.083       .  S
C176        C177   1.406       .  A
C177        C178   1.403       .  A
C177        F184   1.357       .  S
C178        C179   1.404       .  A
C178        H183   1.083       .  S
C179        C180   1.404       .  A
C180        F181   1.358       .  S
C185        C186   1.401       .  A
C185        C190   1.394       .  A
C185        H192   1.084       .  S
C186        C187   1.400       .  A
C187        C188   1.400       .  A
C187        F194   1.357       .  S
C188        C189   1.405       .  A
C188        H193   1.083       .  S
C189        C190   1.403       .  A
C190        F191   1.357       .  S
C195        C196   1.406       .  A
C195        C200   1.398       .  A
C195        H202   1.083       .  S
C196        C197   1.406       .  A
C197        C198   1.399       .  A
C197        F204   1.356       .  S
C198        C443   1.403       .  A
C198        H447   1.083   1_655  S
C199        C686   1.402       .  A
C199        C688   1.402   1_556  A
C200        C443   1.401       .  A
C200        F445   1.356       .  S
F201        C688   1.356       .  S
H203        C686   1.083   1_455  S
C205        C206   1.403       .  A
C205        C454   1.399       .  A
C205        H212   1.084       .  S
C206        C451   1.409       .  A
C207        C208   1.393   1_655  A
C207        C694   1.406       .  A
C207        F214   1.356       .  S
C208        C209   1.399   1_455  A
C208        H213   1.084       .  S
C209        C210   1.410       .  A
C210        C693   1.402       .  A
C210        F211   1.358   1_556  S
C215        C216   1.399       .  A
C215        C220   1.401       .  A
C215        H222   1.083       .  S
C216        C217   1.407       .  A
C217        C218   1.397       .  A
C217        F224   1.358       .  S
C218        C219   1.402       .  A
C218        H223   1.084       .  S
C219        C220   1.411       .  A
C220        F221   1.357       .  S
C225        C226   1.398       .  A
C225        C230   1.397       .  A
C225        H232   1.083       .  S
C226        C227   1.405       .  A
C227        C228   1.393       .  A
C227        F234   1.358       .  S
C228        C229   1.402       .  A
C228        H233   1.081       .  S
C229        C230   1.411       .  A
C230        F231   1.357       .  S
C235        C236   1.402       .  A
C235        C240   1.396   1_554  A
C235        H242   1.082       .  S
C236        C237   1.403       .  A
C237        C238   1.406       .  A
C237        F244   1.356       .  S
C238        C239   1.408   1_554  A
C238        H243   1.082   1_554  S
C239        C240   1.405       .  A
C240        F241   1.357       .  S
N245        C249   1.352       .  A
N245        C246   1.352       .  A
N245        C480   1.439       .  S
C246        C247   1.384       .  A
C246        C460   1.470       .  S
C247        C248   1.374       .  A
C247        H250   1.083       .  S
C248        C249   1.380       .  A
C248        H251   1.083       .  S
C249        C470   1.469       .  S
N252        C483   1.445       .  S
C253        N496   1.361       .  A
C253        C254   1.381       .  A
C253        C450   1.482       .  S
C254        C255   1.367       .  A
C254        H257   1.081       .  S
C255        C256   1.380       .  A
C255        H258   1.078       .  S
C256        N496   1.364       .  A
C256        C473   1.484       .  S
N259        C263   1.362       .  A
N259        C260   1.357       .  A
N259        C433   1.441       .  S
C260        C261   1.382       .  A
C260        C420   1.478       .  S
C261        C262   1.373       .  A
C261        H264   1.082       .  S
C262        C263   1.382       .  A
C262        H265   1.082       .  S
C263        C440   1.484       .  S
N266        C270   1.352       .  A
N266        C267   1.352       .  A
N266        C443   1.435   1_455  S
C267        C268   1.385       .  A
C267        C413   1.477       .  S
C268        C269   1.377       .  A
C268        H271   1.083       .  S
C269        C270   1.381       .  A
C269        H272   1.082       .  S
C270        C430   1.471   1_455  S
N273        C277   1.360       .  A
N273        C274   1.354       .  A
N273        C393   1.433       .  S
C274        C275   1.382       .  A
C274        C383   1.478       .  S
C275        C276   1.376       .  A
C275        H278   1.082       .  S
C276        C277   1.384       .  A
C276        H523   1.082       .  S
C277        C644   1.490       .  S
N280        C284   1.356       .  A
N280        C281   1.362       .  A
N280        C403   1.445       .  S
C281        C282   1.389       .  A
C281        C370   1.489       .  S
C282        C283   1.368       .  A
C282        H285   1.082       .  S
C283        C284   1.375       .  A
C283        H286   1.083       .  S
C284        C390   1.467       .  S
O287        V295   1.896       .  S
O287        C297   1.262       .  A
O288        V295   1.902       .  S
O288        C298   1.266       .  A
O289        V295   1.900       .  S
O289        C299   1.265       .  A
O290        V295   1.904       .  S
O290        C300   1.266       .  A
O291        C300   1.262       .  A
O292        V296   1.901       .  S
O292        C543   1.263       .  A
O293        C298   1.265       .  A
O294        V296   1.907       .  S
O294        C541   1.268       .  A
V296        O535   1.893       .  S
V296        O537   1.911       .  S
V296        V539   2.085       .  T
C297        C453   1.476   1_455  S
C298        C360   1.484       .  S
C299        C410   1.483   1_565  S
C300        C373   1.475       .  S
O301        V309   1.928       .  S
O301        C311   1.270       .  A
O302        V309   1.927       .  S
O302        C312   1.270       .  A
O303        V309   1.903       .  S
O303        C313   1.263       .  A
O304        V309   1.895       .  S
O304        C314   1.262       .  A
O305        V310   1.904       .  S
O305        C314   1.267       .  A
O306        V310   1.901       .  S
O306        C313   1.266       .  A
O307        V310   1.880       .  S
O307        C312   1.258       .  A
O308        V310   1.873       .  S
O308        C311   1.258       .  A
V309        V310   2.088       .  T
C311        C380   1.471       .  S
C312        C423   1.472       .  S
C313        C350   1.474       .  S
C314        C463   1.475       .  S
N315        C319   1.358       .  A
N315        C316   1.360   1_545  A
N315        C330   1.430       .  S
C316        C317   1.383       .  A
C316        C363   1.498       .  S
C317        C318   1.375   1_565  A
C317        H320   1.076       .  S
C318        C319   1.377       .  A
C318        H321   1.082       .  S
C319        C340   1.482       .  S
N322        C326   1.353       .  A
N322        C323   1.358       .  A
N322        C343   1.448       .  S
C323        C324   1.390       .  A
C323        C353   1.481       .  S
C324        C325   1.373       .  A
C324        H327   1.083       .  S
C325        C326   1.376       .  A
C325        H572   1.082       .  S
C326        C333   1.474       .  S
C329        C330   1.397       .  A
C329        H336   1.083       .  S
C330        C331   1.402   1_545  A
C331        C332   1.395   1_565  A
C331        F338   1.357       .  S
C332        H337   1.083   1_545  S
C333        C576   1.403       .  A
C333        C334   1.408       .  A
C334        C573   1.392       .  A
C334        F335   1.357       .  S
C339        C340   1.397       .  A
C339        C344   1.396       .  A
C339        H346   1.083   1_545  S
C340        C341   1.409       .  A
C341        C342   1.409       .  A
C341        F348   1.357       .  S
C342        C343   1.404       .  A
C342        H347   1.082       .  S
C343        C344   1.412       .  A
C344        F345   1.357       .  S
C349        C350   1.403       .  A
C349        C354   1.402       .  A
C349        H356   1.084       .  S
C350        C351   1.404       .  A
C351        C352   1.398       .  A
C351        F358   1.358       .  S
C352        C353   1.406       .  A
C352        H357   1.084       .  S
C353        C354   1.407       .  A
C354        F355   1.357       .  S
C359        C360   1.407       .  A
C359        C364   1.406       .  A
C359        H366   1.084       .  S
C360        C361   1.404       .  A
C361        C362   1.396       .  A
C361        F368   1.358       .  S
C362        C363   1.409       .  A
C362        H367   1.084       .  S
C363        C364   1.411       .  A
C364        F365   1.354       .  S
C369        C370   1.410       .  A
C369        C374   1.397       .  A
C369        H376   1.083       .  S
C370        C371   1.409       .  A
C371        C372   1.399       .  A
C371        F378   1.353       .  S
C372        C373   1.404       .  A
C372        H377   1.083       .  S
C373        C374   1.403       .  A
C374        F375   1.358       .  S
C379        C380   1.404       .  A
C379        C384   1.404       .  A
C379        H386   1.085       .  S
C380        C381   1.407       .  A
C381        C382   1.398       .  A
C381        F388   1.358       .  S
C382        C383   1.401       .  A
C382        H387   1.085       .  S
C383        C384   1.405       .  A
C384        F385   1.357       .  S
C389        C390   1.401       .  A
C389        C394   1.399       .  A
C389        H396   1.083       .  S
C390        C391   1.403       .  A
C391        C392   1.392       .  A
C391        F398   1.358       .  S
C392        C393   1.399       .  A
C392        H397   1.083       .  S
C393        C394   1.406       .  A
C394        F395   1.356       .  S
C399        C400   1.405       .  A
C399        C404   1.398       .  A
C399        H406   1.083       .  S
C401        C644   1.408       .  A
C401        C646   1.404       .  A
C401        F408   1.356       .  S
C402        C403   1.406       .  A
C402        H407   1.082       .  S
C403        C404   1.405       .  A
C404        F405   1.354       .  S
C409        C410   1.407       .  A
C409        C414   1.400       .  A
C409        H416   1.084       .  S
C410        C411   1.409   1_455  A
C411        C412   1.399       .  A
C411        F418   1.358       .  S
C412        C413   1.404   1_655  A
C412        H417   1.084       .  S
C413        C414   1.403       .  A
C414        F415   1.357       .  S
C419        C420   1.403       .  A
C419        C424   1.400       .  A
C419        H426   1.083       .  S
C420        C421   1.404       .  A
C421        C422   1.403       .  A
C421        F428   1.357       .  S
C422        C423   1.405       .  A
C422        H427   1.083       .  S
C423        C424   1.406       .  A
C424        F425   1.358       .  S
C429        C430   1.400       .  A
C429        C434   1.392       .  A
C429        H436   1.084       .  S
C430        C431   1.403       .  A
C431        C432   1.404       .  A
C431        F438   1.357       .  S
C432        C433   1.408       .  A
C432        H437   1.082       .  S
C433        C434   1.405       .  A
C434        F435   1.356       .  S
C439        C440   1.407       .  A
C439        C444   1.399       .  A
C439        H446   1.083       .  S
C440        C441   1.407       .  A
C441        C442   1.396       .  A
C441        F448   1.356       .  S
C442        C687   1.402       .  A
C442        H691   1.083   1_655  S
C444        C687   1.401       .  A
C444        F689   1.356       .  S
C449        C450   1.404       .  A
C449        C698   1.404       .  A
C449        H456   1.084       .  S
C450        C695   1.409       .  A
C451        C452   1.396   1_655  A
C451        F458   1.357   1_655  S
C452        C453   1.401   1_455  A
C452        H457   1.084       .  S
C453        C454   1.408       .  A
C454        F455   1.356       .  S
C459        C460   1.399       .  A
C459        C464   1.401       .  A
C459        H466   1.083       .  S
C460        C461   1.406       .  A
C461        C462   1.395       .  A
C461        F468   1.358       .  S
C462        C463   1.401       .  A
C462        H467   1.084       .  S
C463        C464   1.411       .  A
C464        F465   1.357       .  S
C469        C470   1.397       .  A
C469        C474   1.397       .  A
C469        H476   1.083       .  S
C470        C471   1.405       .  A
C471        C472   1.395       .  A
C471        F478   1.358       .  S
C472        C473   1.403       .  A
C472        H477   1.081       .  S
C473        C474   1.412       .  A
C474        F475   1.357       .  S
C479        C480   1.403       .  A
C479        C484   1.397       .  A
C479        H486   1.082       .  S
C480        C481   1.403       .  A
C481        C482   1.406       .  A
C481        F488   1.356       .  S
C482        C483   1.408       .  A
C482        H487   1.082       .  S
C483        C484   1.405       .  A
C484        F485   1.357       .  S
N489        C493   1.350       .  A
N489        C490   1.352       .  A
N489        C724   1.439       .  S
C490        C491   1.386       .  A
C490        C704   1.471       .  S
C491        C492   1.376       .  A
C491        H494   1.083       .  S
C492        C493   1.379       .  A
C492        H495   1.083       .  S
C493        C714   1.465       .  S
N496        C727   1.445       .  S
C497        C498   1.381       .  A
C497        C694   1.476       .  S
C498        C499   1.369       .  A
C498        H501   1.078       .  S
C499        C500   1.379       .  A
C499        H502   1.080       .  S
C500        C717   1.476       .  S
N503        C507   1.362       .  A
N503        C504   1.358       .  A
N503        C677   1.444       .  S
C504        C505   1.383       .  A
C504        C664   1.477       .  S
C505        C506   1.372       .  A
C505        H508   1.082       .  S
C506        C507   1.381       .  A
C506        H509   1.083   1_556  S
C507        C684   1.481       .  S
N510        C514   1.351   1_655  A
N510        C511   1.352   1_655  A
N510        C687   1.434       .  S
C511        C512   1.385       .  A
C511        C657   1.478       .  S
C512        C513   1.379       .  A
C512        H515   1.082       .  S
C513        C514   1.380       .  A
C513        H516   1.082       .  S
C514        C674   1.474   1_455  S
N517        C521   1.361       .  A
N517        C518   1.356       .  A
N517        C637   1.435       .  S
C518        C519   1.381       .  A
C518        C627   1.478       .  S
C519        C520   1.374       .  A
C519        H522   1.082       .  S
C520        C521   1.384       .  A
N524        C528   1.355       .  A
N524        C525   1.362       .  A
N524        C647   1.445       .  S
C525        C526   1.390       .  A
C525        C614   1.491       .  S
C526        C527   1.370       .  A
C526        H529   1.082       .  S
C527        C528   1.375       .  A
C527        H530   1.083       .  S
C528        C634   1.467       .  S
O531        V539   1.899       .  S
O531        C541   1.261       .  A
O532        V539   1.904       .  S
O532        C542   1.266       .  A
O533        V539   1.899       .  S
O533        C543   1.265       .  A
O534        V539   1.906       .  S
O534        C544   1.267       .  A
O535        C544   1.262       .  A
O536        V540   1.900   1_556  S
O537        C542   1.264       .  A
O538        V540   1.908   1_556  S
C541        C697   1.479   1_455  S
C542        C604   1.484       .  S
C543        C654   1.480   1_565  S
C544        C617   1.475       .  S
O545        V553   1.923       .  S
O545        C555   1.269       .  A
O546        V553   1.922       .  S
O546        C556   1.268       .  A
O547        V553   1.904       .  S
O547        C557   1.264       .  A
O548        V553   1.898       .  S
O548        C558   1.262       .  A
O549        V554   1.901       .  S
O549        C558   1.266       .  A
O550        V554   1.897       .  S
O550        C557   1.265       .  A
O551        V554   1.884       .  S
O551        C556   1.260       .  A
O552        V554   1.880       .  S
O552        C555   1.260       .  A
V553        V554   2.088       .  T
C555        C624   1.472       .  S
C556        C667   1.471       .  S
C557        C594   1.472       .  S
C558        C707   1.472       .  S
N559        C563   1.356       .  A
N559        C560   1.361   1_545  A
N559        C574   1.429       .  S
C560        C561   1.387       .  A
C560        C607   1.501       .  S
C561        C562   1.374   1_565  A
C561        H564   1.079       .  S
C562        C563   1.376       .  A
C562        H565   1.083       .  S
C563        C584   1.479       .  S
N566        C570   1.353       .  A
N566        C567   1.355       .  A
N566        C587   1.443       .  S
C567        C568   1.388       .  A
C567        C597   1.477       .  S
C568        C569   1.374       .  A
C568        H571   1.083       .  S
C569        C570   1.378       .  A
C570        C577   1.477   1_556  S
C573        C574   1.396       .  A
C573        H580   1.083       .  S
C574        C575   1.404       .  A
C575        C576   1.398       .  A
C575        F582   1.356   1_545  S
C576        H581   1.083   1_545  S
C577        C578   1.410       .  A
C578        F579   1.356       .  S
C583        C584   1.398       .  A
C583        C588   1.396       .  A
C583        H590   1.081   1_545  S
C584        C585   1.408       .  A
C585        C586   1.405       .  A
C585        F592   1.357       .  S
C586        C587   1.404       .  A
C586        H591   1.080       .  S
C587        C588   1.409       .  A
C588        F589   1.357       .  S
C593        C594   1.404       .  A
C593        C598   1.401       .  A
C593        H600   1.084       .  S
C594        C595   1.403       .  A
C595        C596   1.397       .  A
C595        F602   1.358       .  S
C596        C597   1.405       .  A
C596        H601   1.082       .  S
C597        C598   1.406       .  A
C598        F599   1.357       .  S
C603        C604   1.407       .  A
C603        C608   1.408       .  A
C603        H610   1.082       .  S
C604        C605   1.403       .  A
C605        C606   1.395       .  A
C605        F612   1.358       .  S
C606        C607   1.408       .  A
C606        H611   1.080   1_565  S
C607        C608   1.414       .  A
C608        F609   1.354       .  S
C613        C614   1.410       .  A
C613        C618   1.398       .  A
C613        H620   1.083       .  S
C614        C615   1.410       .  A
C615        C616   1.399       .  A
C615        F622   1.353       .  S
C616        C617   1.403       .  A
C616        H621   1.084       .  S
C617        C618   1.402       .  A
C618        F619   1.358       .  S
C623        C624   1.404       .  A
C623        C628   1.403       .  A
C623        H630   1.085       .  S
C624        C625   1.405       .  A
C625        C626   1.398       .  A
C625        F632   1.358       .  S
C626        C627   1.402       .  A
C626        H631   1.084       .  S
C627        C628   1.407       .  A
C628        F629   1.357       .  S
C633        C634   1.401       .  A
C633        C638   1.401       .  A
C633        H640   1.083       .  S
C634        C635   1.402       .  A
C635        C636   1.391       .  A
C635        F642   1.358       .  S
C636        C637   1.401       .  A
C636        H641   1.083       .  S
C637        C638   1.406       .  A
C638        F639   1.355       .  S
C643        C644   1.405       .  A
C643        C648   1.399       .  A
C643        H650   1.083       .  S
C645        F652   1.355       .  S
C646        C647   1.405       .  A
C646        H651   1.082       .  S
C647        C648   1.406       .  A
C648        F649   1.355       .  S
C653        C654   1.408       .  A
C653        C658   1.401       .  A
C653        H660   1.084       .  S
C654        C655   1.406       .  A
C655        C656   1.395   1_455  A
C655        F662   1.357   1_455  S
C656        C657   1.403   1_655  A
C656        H661   1.083       .  S
C657        C658   1.405       .  A
C658        F659   1.357       .  S
C663        C664   1.403       .  A
C663        C668   1.397       .  A
C663        H670   1.083       .  S
C664        C665   1.405       .  A
C665        C666   1.404       .  A
C665        F672   1.357       .  S
C666        C667   1.404       .  A
C666        H671   1.083       .  S
C667        C668   1.404       .  A
C668        F669   1.358       .  S
C673        C674   1.400       .  A
C673        C678   1.394       .  A
C673        H680   1.084       .  S
C674        C675   1.402       .  A
C675        C676   1.404       .  A
C675        F682   1.357       .  S
C676        C677   1.408       .  A
C676        H681   1.082       .  S
C677        C678   1.406       .  A
C678        F679   1.356       .  S
C683        C684   1.407       .  A
C683        C688   1.399   1_556  A
C683        H690   1.083   1_556  S
C684        C685   1.405       .  A
C685        C686   1.395       .  A
C685        F692   1.356       .  S
C693        C694   1.403       .  A
C693        H700   1.084       .  S
C695        C696   1.395   1_655  A
C695        F702   1.358       .  S
C696        C697   1.400   1_455  A
C696        H701   1.084       .  S
C697        C698   1.410       .  A
C698        F699   1.357       .  S
C703        C704   1.400       .  A
C703        C708   1.402       .  A
C703        H710   1.083       .  S
C704        C705   1.406       .  A
C705        C706   1.395       .  A
C705        F712   1.358       .  S
C706        C707   1.400       .  A
C706        H711   1.084       .  S
C707        C708   1.409       .  A
C708        F709   1.357       .  S
C713        C714   1.397       .  A
C713        C718   1.396       .  A
C713        H720   1.083       .  S
C714        C715   1.405       .  A
C715        C716   1.394       .  A
C715        F722   1.358       .  S
C716        C717   1.401       .  A
C716        H721   1.083       .  S
C717        C718   1.409       .  A
C718        F719   1.357       .  S
C723        C724   1.402       .  A
C723        C728   1.397       .  A
C723        H730   1.082       .  S
C724        C725   1.404       .  A
C725        C726   1.407       .  A
C725        F732   1.356       .  S
C726        C727   1.408       .  A
C726        H731   1.082       .  S
C727        C728   1.405       .  A
C728        F729   1.357       .  S
