geometry optimzed in LAMMPS
_audit_creation_date              2020-11-30 
_audit_creation_method            'lammps2cif' 
_symmetry_space_group_name_H-M    'P1' 
_symmetry_Int_Tables_number       1 
_symmetry_cell_setting            triclinic 
loop_ 
_symmetry_equiv_pos_as_xyz 
  x,y,z 
_cell_length_a                    32.10961463 
_cell_length_b                    32.30077268507731 
_cell_length_c                    31.322251572175563 
_cell_angle_alpha                 90.58379486864995 
_cell_angle_beta                  89.81033004943988 
_cell_angle_gamma                 90.33476162378088 
loop_ 
_atom_site_label 
_atom_site_type_symbol 
_atom_site_fract_x 
_atom_site_fract_y 
_atom_site_fract_z 
_atom_site_charge 
C1          C  0.51269972  0.26659911  0.98552682     0.02800
C2          C  0.53047731  0.25613364  0.44699431    -0.13300
C3          C  0.57394057  0.26012973  0.44342522     0.00300
C4          C  0.59762445  0.26494527  0.48093469    -0.11900
C5          C  0.57976465  0.27431005  0.01970901     0.02800
C6          C  0.53643105  0.27106172  0.02257573    -0.11300
H7          H  0.51162485  0.25390741  0.41842222     0.08400
H8          H  0.63079574  0.27099010  0.47878440     0.05900
H9          H  0.52109993  0.27536352  0.05318499     0.05800
O10         O  0.65953836  0.33547386  0.26823370    -0.82100
C11         C  0.83357668  0.35435224  0.24058219     0.97200
O12         O  0.81538249  0.33925096  0.27252871    -0.71200
O13         O  0.76245878  0.38943860  0.30816828    -0.74800
Al14       Al  0.75856338  0.33436179  0.28907597     1.49000
C15         C  0.73216577  0.41376067  0.31184276     0.92500
O16         O  0.71430369  0.42209402  0.20758115    -0.81000
O17         O  0.71590035  0.30672832  0.16911735    -0.74600
Al18       Al  0.68959853  0.37739249  0.23815670     1.90100
O19         O  0.75007443  0.38384065  0.16218912    -0.73700
O20         O  0.78163163  0.28208389  0.21021458    -0.73500
O21         O  0.81359951  0.36127736  0.20693520    -0.79200
O22         O  0.75677671  0.27785879  0.27517148    -0.77400
O23         O  0.73708206  0.34889215  0.23935305    -1.13500
O24         O  0.70686313  0.32557126  0.31722132    -0.72700
C25         C  0.67016918  0.32082236  0.30377032     0.98000
C26         C  0.73493093  0.41818514  0.17336640     0.94400
Al27       Al  0.76302676  0.33469866  0.19115296     1.55600
O28         O  0.69976951  0.40858867  0.28960906    -0.77300
C29         C  0.77299419  0.26108821  0.24280476     0.98600
C30         C  0.68044386  0.32226196  0.16416428     0.93400
O31         O  0.66919119  0.35287088  0.18667480    -0.82700
C32         C  0.77264772  0.58636270  0.99176181     0.02800
C33         C  0.76213549  0.56675516  0.45418775    -0.13300
C34         C  0.75236524  0.52446538  0.45407237     0.00300
C35         C  0.75025990  0.50244073  0.99211165    -0.11900
C36         C  0.75791781  0.52340349  0.03064760     0.02800
C37         C  0.76947935  0.56506497  0.03039203    -0.11300
H38         H  0.76358195  0.58338571  0.42434682     0.08400
H39         H  0.74192353  0.46987369  0.99245113     0.05900
H40         H  0.77551381  0.58106747  0.06035276     0.05800
C41         C  0.81623127  0.08971500  0.26170629     0.02800
C42         C  0.82415387  0.07179683  0.30161937    -0.13300
C43         C  0.83556268  0.02997957  0.30388137     0.00300
C44         C  0.84108490  0.00704329  0.26608597    -0.11900
C45         C  0.83442306  0.02520648  0.22651801     0.02800
C46         C  0.82128621  0.06607124  0.22433886    -0.11300
H47         H  0.82205313  0.09025865  0.33056436     0.08400
H48         H  0.84996900  0.97474885  0.26744761     0.05900
H49         H  0.81516624  0.07953528  0.19342995     0.05800
O50         O  0.86992227  0.91948082  0.05094553    -0.82100
C51         C  0.80706533  0.76121859  0.00467270     0.97200
O52         O  0.80231924  0.77964019  0.03989028    -0.71200
O53         O  0.87186986  0.80049975  0.07732159    -0.74800
Al54       Al  0.82352359  0.83022928  0.06252615     1.49000
C55         C  0.90739800  0.81647930  0.08241427     0.92500
O56         O  0.92311338  0.83636995  0.47707085    -0.81000
O57         O  0.82031213  0.89348138  0.44599078    -0.74600
Al58       Al  0.89347325  0.87747605  0.01561370     1.90100
O59         O  0.87278510  0.82754096  0.43038564    -0.73700
O60         O  0.76712104  0.84423723  0.48292877    -0.73500
O61         O  0.82143432  0.77954058  0.47088277    -0.79200
O62         O  0.77280859  0.85739654  0.05368398    -0.77400
O63         O  0.84588429  0.84860207  0.01410283    -1.13500
O64         O  0.83923641  0.87712776  0.09590249    -0.72700
C65         C  0.85170351  0.91287636  0.08603688     0.98000
C66         C  0.91043163  0.82333039  0.44122546     0.94400
Al67       Al  0.82250602  0.83718047  0.46172212     1.55600
O68         O  0.91646464  0.84980682  0.06381579    -0.77300
C69         C  0.75095049  0.85635487  0.02053291     0.98600
C70         C  0.85153845  0.91684161  0.44213427     0.93400
O71         O  0.88426369  0.90992930  0.46285189    -0.82700
C72         C  0.07380454  0.75765107  0.26040131     0.02800
C73         C  0.05170931  0.75580382  0.22190932    -0.13300
C74         C  0.00831581  0.76051117  0.22173540     0.00300
C75         C  0.98724059  0.76552320  0.26080453    -0.11900
C76         C  0.00868622  0.76402177  0.29980499     0.02800
C77         C  0.05215399  0.75989478  0.29922487    -0.11300
H78         H  0.06861671  0.75379459  0.19196838     0.08400
H79         H  0.95426510  0.77246836  0.26077965     0.05900
H80         H  0.06945898  0.76129363  0.32886023     0.05800
C81         C  0.24963804  0.05367866  0.24091846     0.02800
C82         C  0.24744390  0.07261201  0.20090246    -0.13300
C83         C  0.23975054  0.11510294  0.19831725     0.00300
C84         C  0.23391478  0.13857791  0.23572177    -0.11900
C85         C  0.23662365  0.11992820  0.27573863     0.02800
C86         C  0.24400107  0.07739731  0.27822583    -0.11300
H87         H  0.25382202  0.05486908  0.17209657     0.08400
H88         H  0.22920861  0.17172194  0.23370472     0.05900
H89         H  0.24674344  0.06299177  0.30919854     0.05800
O90         O  0.16340859  0.31790632  0.45770559    -0.82100
C91         C  0.33633377  0.29107088  0.99391905     0.97200
O92         O  0.31825184  0.30368466  0.46379677    -0.71200
O93         O  0.26344177  0.25588917  0.42382457    -0.74800
Al94       Al  0.26297572  0.31150621  0.44389714     1.49000
C95         C  0.23080421  0.23446831  0.41801371     0.92500
O96         O  0.22005126  0.21958851  0.01996506    -0.81000
O97         O  0.21655808  0.33531410  0.06051153    -0.74600
Al98       Al  0.19515335  0.26401144  0.99003917     1.90100
O99         O  0.24956356  0.25833264  0.06914904    -0.73700
O100        O  0.28569105  0.36064210  0.02449175    -0.73500
O101        O  0.31479417  0.28156521  0.02601265    -0.79200
O102        O  0.26423286  0.36830305  0.45920164    -0.77400
O103        O  0.24123823  0.29482356  0.99126819    -1.13500
O104        O  0.21457595  0.32304780  0.41189598    -0.72700
C105        C  0.17726493  0.32946286  0.42197533     0.98000
C106        C  0.23647323  0.22356379  0.05627716     0.94400
Al107      Al  0.26464846  0.30785393  0.04092648     1.55600
O108        O  0.19809329  0.24204276  0.43922355    -0.77300
C109        C  0.27710773  0.38393794  0.99375834     0.98600
C110        C  0.18114846  0.31861748  0.06360615     0.93400
O111        O  0.17180616  0.28693645  0.04145075    -0.82700
C112        C  0.01126252  0.38225974  0.23994915     0.02800
C113        C  0.03290144  0.38417372  0.27882120    -0.13300
C114        C  0.07570534  0.37625036  0.28006670     0.00300
C115        C  0.09754904  0.37067849  0.24167435    -0.11900
C116        C  0.07656800  0.37037092  0.20268646     0.02800
C117        C  0.03334047  0.37550583  0.20180353    -0.11300
H118        H  0.01582367  0.38905700  0.30828642     0.08400
H119        H  0.13053461  0.36367220  0.24221509     0.05900
H120        H  0.01678991  0.37132714  0.17198070     0.05800
C121        C  0.32514304  0.55501592  0.01532756     0.02800
C122        C  0.33144122  0.57203358  0.05625633    -0.13300
C123        C  0.34199996  0.61392507  0.06102556     0.00300
C124        C  0.34486154  0.63905178  0.02496813    -0.11900
C125        C  0.34106438  0.62175186  0.48185348     0.02800
C126        C  0.33134395  0.57968891  0.47600113    -0.11300
H127        H  0.32744769  0.55302949  0.08429215     0.08400
H128        H  0.35177258  0.67180476  0.02877126     0.05900
H129        H  0.32545599  0.56744277  0.44425637     0.05800
O130        O  0.36737735  0.72175456  0.23886108    -0.82100
C131        C  0.30568981  0.88552200  0.25986010     0.97200
O132        O  0.29647974  0.85964972  0.23094757    -0.71200
O133        O  0.36550567  0.83495872  0.19392999    -0.74800
Al134      Al  0.31913330  0.80666419  0.21637814     1.49000
C135        C  0.40144819  0.81981640  0.19066385     0.92500
O136        O  0.42239869  0.81014468  0.29561007    -0.81000
O137        O  0.31826200  0.76645043  0.33903683    -0.74600
Al138      Al  0.39138121  0.76837266  0.26708591     1.90100
O139        O  0.37447477  0.82974355  0.34131720    -0.73700
O140        O  0.26542936  0.81108080  0.29640488    -0.73500
O141        O  0.32451030  0.87395922  0.29290731    -0.79200
O142        O  0.27067176  0.77894039  0.23439297    -0.77400
O143        O  0.34460751  0.79788124  0.26580108    -1.13500
O144        O  0.33505341  0.75621865  0.18930873    -0.72700
C145        C  0.34990846  0.72298169  0.20304812     0.98000
C146        C  0.41221625  0.82728251  0.33030468     0.94400
Al147      Al  0.32261765  0.81871751  0.31345171     1.55600
O148        O  0.41291064  0.79040943  0.21441800    -0.77300
C149        C  0.24957226  0.78970574  0.26647731     0.98600
C150        C  0.34679651  0.74041862  0.34398508     0.93400
O151        O  0.37866699  0.74100477  0.32001724    -0.82700
C152        C  0.57378225  0.87176965  0.01771383     0.02800
C153        C  0.54703591  0.87190833  0.05320258    -0.13300
C154        C  0.50433955  0.86516207  0.04780685     0.00300
C155        C  0.48792440  0.86124401  0.00670983    -0.11900
C156        C  0.51507278  0.85815705  0.47486185     0.02800
C157        C  0.55799289  0.86400535  0.47984807    -0.11300
H158        H  0.55963699  0.87475415  0.08514071     0.08400
H159        H  0.45494164  0.85500647  0.00267262     0.05900
H160        H  0.57804451  0.86443005  0.45194608     0.05800
C161        C  0.47390638  0.80974915  0.37293485    -0.20600
C162        C  0.44476158  0.83973941  0.36103283    -0.07200
C163        C  0.44348958  0.87786007  0.38337337     0.13700
C164        C  0.46948589  0.88423127  0.41858829    -0.20700
C165        C  0.49616902  0.85310598  0.43241638    -0.07200
C166        C  0.49926910  0.81572716  0.40892064     0.13700
C167        C  0.52712293  0.78124169  0.42339211    -0.24000
H168        H  0.47459572  0.78031187  0.35598061     0.15000
H169        H  0.46750046  0.91287409  0.43684654     0.15000
C170        C  0.41473684  0.91179197  0.37031506    -0.24000
H171        H  0.52481458  0.75368839  0.40199650     0.05200
H172        H  0.51814154  0.77162331  0.45611193     0.08400
H173        H  0.56003188  0.79190896  0.42347674     0.08400
H174        H  0.38193659  0.90147370  0.37392026     0.08400
H175        H  0.42148950  0.91978867  0.33664300     0.08400
H176        H  0.41899774  0.94019721  0.39015101     0.05200
C177        C  0.44968607  0.80271751  0.13243884    -0.20600
C178        C  0.42894769  0.83355432  0.15581784    -0.07200
C179        C  0.43278698  0.87548022  0.14346790     0.13700
C180        C  0.45811795  0.88540898  0.10826876    -0.20700
C181        C  0.47838064  0.85426029  0.08484194    -0.07200
C182        C  0.47371296  0.81246822  0.09667046     0.13700
C183        C  0.49358293  0.77796002  0.07122654    -0.24000
H184        H  0.44589117  0.77056328  0.14135712     0.15000
H185        H  0.46177289  0.91736887  0.09866703     0.15000
C186        C  0.41105599  0.90975704  0.16761844    -0.24000
H187        H  0.48633505  0.74708632  0.08476680     0.05200
H188        H  0.52779714  0.78198107  0.07125068     0.08400
H189        H  0.48209245  0.77825594  0.03784677     0.08400
H190        H  0.42002206  0.90899798  0.20180251     0.08400
H191        H  0.37678424  0.90616787  0.16478565     0.08400
H192        H  0.41948505  0.94070285  0.15496537     0.05200
C193        C  0.31536842  0.68453328  0.44628279    -0.20600
C194        C  0.34215821  0.65046773  0.44520115    -0.07200
C195        C  0.37035225  0.64589816  0.41078096     0.13700
C196        C  0.37036090  0.67517497  0.37789080    -0.20700
C197        C  0.34352359  0.70949232  0.37883317    -0.07200
C198        C  0.31597660  0.71442337  0.41416207     0.13700
C199        C  0.28829770  0.75172271  0.41990947    -0.24000
H200        H  0.29414943  0.68807319  0.47305086     0.15000
H201        H  0.39197979  0.67143618  0.35152483     0.15000
C202        C  0.40185429  0.61147388  0.40952011    -0.24000
H203        H  0.27086334  0.75095958  0.45058256     0.05200
H204        H  0.26489174  0.75283936  0.39404914     0.08400
H205        H  0.30748428  0.78044037  0.42002882     0.08400
H206        H  0.38601267  0.58102405  0.40659142     0.08400
H207        H  0.42081826  0.61231863  0.43910039     0.08400
H208        H  0.42338105  0.61439877  0.38187147     0.05200
C209        C  0.30998774  0.64128889  0.12704920    -0.20600
C210        C  0.34631758  0.63317106  0.10361332    -0.07200
C211        C  0.38495608  0.64891645  0.11803712     0.13700
C212        C  0.38586813  0.67524898  0.15392063    -0.20700
C213        C  0.34892319  0.68650105  0.17484322    -0.07200
C214        C  0.31079423  0.66827996  0.16234717     0.13700
C215        C  0.27087893  0.67834277  0.18545810    -0.24000
H216        H  0.28051062  0.62878709  0.11589943     0.15000
H217        H  0.41502156  0.68949511  0.16371735     0.15000
C218        C  0.42487500  0.63897914  0.09477660    -0.24000
H219        H  0.24406332  0.66059533  0.17222726     0.05200
H220        H  0.26388007  0.71177582  0.18258662     0.08400
H221        H  0.27407691  0.67040115  0.21966120     0.08400
H222        H  0.42378137  0.65088805  0.06170366     0.08400
H223        H  0.42930359  0.60491478  0.09367901     0.07200
H224        H  0.45231139  0.65318532  0.11085794     0.05200
C225        C  0.33333788  0.43695310  0.50082305    -0.20600
C226        C  0.28912080  0.42797794  0.99699822    -0.07200
C227        C  0.26296467  0.46024578  0.98347944     0.13700
C228        C  0.27553487  0.50141385  0.99007276    -0.20700
C229        C  0.31359683  0.51103487  0.00974930    -0.07200
C230        C  0.34615952  0.47833289  0.50523098     0.13700
C231        C  0.39175059  0.48849122  0.51002744    -0.24000
H232        H  0.35624231  0.41241727  0.50135467     0.15000
H233        H  0.25533098  0.52636500  0.98029102     0.15000
C234        C  0.22111531  0.45157394  0.96396439    -0.24000
H235        H  0.41122830  0.46018379  0.50906279     0.05200
H236        H  0.39716629  0.50456506  0.54102648     0.08400
H237        H  0.40192385  0.50896625  0.48365296     0.08400
H238        H  0.20216607  0.43312833  0.98659974     0.08400
H239        H  0.22496686  0.43430074  0.93341376     0.08400
H240        H  0.20394683  0.48048941  0.95706985     0.05200
C241        C  0.12123726  0.38771726  0.14083508    -0.20600
C242        C  0.09941163  0.35774005  0.16405361    -0.07200
C243        C  0.10277832  0.31554706  0.15279771     0.13700
C244        C  0.12841625  0.30409250  0.11857903    -0.20700
C245        C  0.15152602  0.33377897  0.09606964    -0.07200
C246        C  0.14749876  0.37624942  0.10685907     0.13700
C247        C  0.17007656  0.40956030  0.08241219    -0.24000
H248        H  0.11847510  0.42001477  0.15005468     0.15000
H249        H  0.13179771  0.27155559  0.11054306     0.15000
C250        C  0.08039919  0.28251343  0.17781840    -0.24000
H251        H  0.16102450  0.44101871  0.09351469     0.05200
H252        H  0.16233421  0.40677743  0.04798781     0.08400
H253        H  0.20421933  0.40681232  0.08675679     0.08400
H254        H  0.04629080  0.28772590  0.17656090     0.08400
H255        H  0.09074064  0.28349317  0.21161122     0.08400
H256        H  0.08674987  0.25103170  0.16485836     0.05200
C257        C  0.11007474  0.32813198  0.38435425    -0.20600
C258        C  0.14918272  0.34691356  0.38968407    -0.07200
C259        C  0.16246383  0.37750046  0.36039635     0.13700
C260        C  0.13559620  0.38937239  0.32766620    -0.20700
C261        C  0.09751440  0.36897876  0.32088770    -0.07200
C262        C  0.08485168  0.33738221  0.34930629     0.13700
C263        C  0.04700493  0.31060941  0.34100284    -0.24000
H264        H  0.10071847  0.30358550  0.40578718     0.15000
H265        H  0.14563806  0.41277258  0.30522177     0.15000
C266        C  0.20541829  0.39659501  0.36184054    -0.24000
H267        H  0.04482303  0.28455998  0.36379891     0.05200
H268        H  0.04863732  0.29705293  0.30830663     0.08400
H269        H  0.01819924  0.32897240  0.34472335     0.08400
H270        H  0.22925891  0.37286694  0.35436122     0.08400
H271        H  0.21145212  0.41008108  0.39372303     0.08400
H272        H  0.20915887  0.42166497  0.33809738     0.05200
C273        C  0.20749035  0.13590980  0.13021173    -0.20600
C274        C  0.24232655  0.13639426  0.15710153    -0.07200
C275        C  0.27730791  0.16100481  0.14670260     0.13700
C276        C  0.27546394  0.18667834  0.11120267    -0.20700
C277        C  0.23963430  0.18856098  0.08583813    -0.07200
C278        C  0.20557483  0.16200107  0.09462688     0.13700
C279        C  0.16615978  0.16329116  0.06873073    -0.24000
H280        H  0.18082081  0.11686876  0.13854854     0.15000
H281        H  0.30157342  0.20704236  0.10454365     0.15000
C282        C  0.31649819  0.16206292  0.17314415    -0.24000
H283        H  0.14228215  0.14135009  0.08094243     0.05200
H284        H  0.17299921  0.15469149  0.03504075     0.08400
H285        H  0.15279074  0.19491533  0.07007398     0.08400
H286        H  0.31568952  0.14018036  0.20015912     0.08400
H287        H  0.32142713  0.19378726  0.18624288     0.08400
H288        H  0.34353805  0.15372497  0.15267080     0.05200
C289        C  0.19677463  0.16387320  0.32616203    -0.20600
C290        C  0.23473895  0.14578527  0.31477167    -0.07200
C291        C  0.27083437  0.15500115  0.33871607     0.13700
C292        C  0.26819773  0.18284798  0.37324223    -0.20700
C293        C  0.23036447  0.20178819  0.38440270    -0.07200
C294        C  0.19393079  0.19171567  0.36071065     0.13700
C295        C  0.15232609  0.21144822  0.36994168    -0.24000
H296        H  0.16938182  0.15675284  0.30724261     0.15000
H297        H  0.29609153  0.19049561  0.39113662     0.15000
C298        C  0.31247952  0.13684349  0.32680417    -0.24000
H299        H  0.14131820  0.20271722  0.40226371     0.05200
H300        H  0.12810550  0.20118642  0.34684256     0.08400
H301        H  0.15510561  0.24563786  0.36774649     0.08400
H302        H  0.32055770  0.14517934  0.29346650     0.08400
H303        H  0.31135053  0.10264391  0.32958259     0.08400
H304        H  0.33770490  0.14854049  0.34798114     0.05200
C305        C  0.30217758  0.00324941  0.26307700    -0.20600
C306        C  0.26342050  0.01045089  0.24435403    -0.07200
C307        C  0.23869112  0.97675868  0.23045440     0.13700
C308        C  0.25359413  0.93637178  0.23561519    -0.20700
C309        C  0.29222955  0.92897435  0.25507744    -0.07200
C310        C  0.31681406  0.96298629  0.26878485     0.13700
C311        C  0.35838081  0.95725038  0.28945612    -0.24000
H312        H  0.32093596  0.02943918  0.27360898     0.15000
H313        H  0.23454343  0.91036648  0.22522730     0.15000
C314        C  0.19616435  0.98327629  0.21158250    -0.24000
H315        H  0.37454673  0.98719611  0.29568933     0.05200
H316        H  0.37874753  0.93795169  0.26869286     0.08400
H317        H  0.35321949  0.94215620  0.32052999     0.08400
H318        H  0.19881041  0.00118446  0.18166160     0.08400
H319        H  0.17631728  0.00047645  0.23472439     0.08400
H320        H  0.18043453  0.95341640  0.20387033     0.05200
C321        C  0.17892149  0.80956927  0.24769252    -0.20600
C322        C  0.20500154  0.78068327  0.26661531    -0.07200
C323        C  0.18847916  0.74356499  0.28291898     0.13700
C324        C  0.14546998  0.73602563  0.27971262    -0.20700
C325        C  0.11922950  0.76479951  0.26017222    -0.07200
C326        C  0.13613844  0.80224176  0.24434954     0.13700
C327        C  0.10924261  0.83520248  0.22499801    -0.24000
H328        H  0.19224579  0.83795844  0.23528565     0.15000
H329        H  0.13221994  0.70785091  0.29261085     0.15000
C330        C  0.21617999  0.71236730  0.30385442    -0.24000
H331        H  0.12741767  0.86359742  0.21750894     0.05200
H332        H  0.08399035  0.84399898  0.24756856     0.08400
H333        H  0.09565956  0.82363982  0.19468451     0.08400
H334        H  0.23166513  0.72679790  0.33190417     0.08400
H335        H  0.24035307  0.70174126  0.28095149     0.08400
H336        H  0.19830712  0.68491463  0.31485288     0.05200
C337        C  0.68518218  0.83542938  0.54723547    -0.20600
C338        C  0.70651059  0.86501083  0.02399260    -0.07200
C339        C  0.68750362  0.89760938  0.00193299     0.13700
C340        C  0.64395056  0.90061291  0.00242940    -0.20700
C341        C  0.61937759  0.87098856  0.02347665    -0.07200
C342        C  0.64171935  0.83645161  0.54794976     0.13700
C343        C  0.61877839  0.80141371  0.56935509    -0.24000
H344        H  0.70134394  0.81115835  0.56381008     0.15000
H345        H  0.62890344  0.92524266  0.98508546     0.15000
C346        C  0.71313122  0.92876932  0.97779051    -0.24000
H347        H  0.64043064  0.77755764  0.58140677     0.05200
H348        H  0.59769906  0.78602604  0.54601164     0.08400
H349        H  0.59548062  0.81474980  0.09263456     0.08400
H350        H  0.72970946  0.91346740  0.45144387     0.08400
H351        H  0.73553564  0.94425295  0.99976643     0.08400
H352        H  0.69338834  0.95292394  0.96321457     0.05200
C353        C  0.92301602  0.76455723  0.13825413    -0.20600
C354        C  0.93714689  0.79757295  0.11286575    -0.07200
C355        C  0.97813802  0.81308862  0.11941769     0.13700
C356        C  0.00156296  0.79824249  0.15363855    -0.20700
C357        C  0.98588540  0.76780636  0.18110604    -0.07200
C358        C  0.94707585  0.74905143  0.17169389     0.13700
C359        C  0.93019975  0.71256323  0.19604869    -0.24000
H360        H  0.89246056  0.75112923  0.13276270     0.15000
H361        H  0.03152649  0.81230181  0.16035512     0.15000
C362        C  0.99763302  0.84577122  0.09148737    -0.24000
H363        H  0.92292675  0.68690403  0.17335932     0.05200
H364        H  0.90122443  0.72157311  0.21311254     0.08400
H365        H  0.95270478  0.70039463  0.21947551     0.08400
H366        H  0.98101903  0.87558635  0.09553132     0.08400
H367        H  0.99673292  0.83549787  0.05755337     0.08400
H368        H  0.03076776  0.85160662  0.09982300     0.05200
C369        C  0.00260475  0.80436834  0.36759333    -0.20600
C370        C  0.98637960  0.77330157  0.34045364    -0.07200
C371        C  0.94756225  0.75488271  0.35076016     0.13700
C372        C  0.92411897  0.77118588  0.38470657    -0.20700
C373        C  0.93935391  0.80378674  0.41032219    -0.07200
C374        C  0.97999520  0.81922419  0.40292773     0.13700
C375        C  0.99908871  0.85253298  0.43079979    -0.24000
H376        H  0.03242961  0.81842652  0.36013062     0.15000
H377        H  0.89350417  0.75829555  0.39121448     0.15000
C378        C  0.93008737  0.71777066  0.32717104    -0.24000
H379        H  0.03051091  0.86183298  0.41933121     0.05200
H380        H  0.00244193  0.84100053  0.46386684     0.08400
H381        H  0.97918258  0.88042334  0.43110382     0.08400
H382        H  0.95227940  0.70438534  0.30374462     0.08400
H383        H  0.90111403  0.72655296  0.31035110     0.08400
H384        H  0.92261349  0.69298827  0.35033933     0.05200
C385        C  0.80345476  0.98131318  0.17063003    -0.20600
C386        C  0.83898428  0.00049881  0.18736676    -0.07200
C387        C  0.87813130  0.99446883  0.16786130     0.13700
C388        C  0.88114165  0.96761975  0.13254815    -0.20700
C389        C  0.84592480  0.94633854  0.11738828    -0.07200
C390        C  0.80644421  0.95390336  0.13598360     0.13700
C391        C  0.76741961  0.93304857  0.11969600    -0.24000
H392        H  0.77352725  0.98671252  0.18577249     0.15000
H393        H  0.91128927  0.96155178  0.11819085     0.15000
C394        C  0.91660072  0.01566224  0.18494567    -0.24000
H395        H  0.73912754  0.94494295  0.13610025     0.05200
H396        H  0.76881288  0.89931360  0.12559236     0.08400
H397        H  0.76397877  0.93877012  0.08499367     0.08400
H398        H  0.92205521  0.00613492  0.21841554     0.08400
H399        H  0.91248809  0.04975221  0.18405723     0.08400
H400        H  0.94466789  0.00764981  0.16583224     0.05200
C401        C  0.87970407  0.98931220  0.35187374    -0.20600
C402        C  0.84143556  0.00874120  0.34498810    -0.07200
C403        C  0.80775760  0.00095868  0.37299972     0.13700
C404        C  0.81267827  0.97230385  0.40593108    -0.20700
C405        C  0.85029497  0.95115197  0.41136782    -0.07200
C406        C  0.88452600  0.96029528  0.38436584     0.13700
C407        C  0.92522979  0.93751199  0.38731267    -0.24000
H408        H  0.90523767  0.99511120  0.32995140     0.15000
H409        H  0.78659374  0.96537335  0.42673900     0.15000
C410        C  0.76598615  0.02099307  0.36704049    -0.24000
H411        H  0.94751757  0.94701596  0.36199756     0.05200
H412        H  0.91967329  0.90369039  0.38362252     0.08400
H413        H  0.94007443  0.94425551  0.41856288     0.08400
H414        H  0.75415166  0.01453339  0.33436396     0.08400
H415        H  0.76903545  0.05483072  0.37220631     0.08400
H416        H  0.74255352  0.00933882  0.39022797     0.05200
C417        C  0.82401605  0.69151924  0.97692621    -0.20600
C418        C  0.79725945  0.71674858  0.00112636    -0.07200
C419        C  0.76216290  0.69900812  0.02151293     0.13700
C420        C  0.75465148  0.65651747  0.01681564    -0.20700
C421        C  0.78152981  0.63122803  0.99290053    -0.07200
C422        C  0.81698004  0.64877355  0.97312119     0.13700
C423        C  0.84835266  0.62255134  0.94958855    -0.24000
H424        H  0.85114847  0.70520201  0.96181770     0.15000
H425        H  0.72765799  0.64274931  0.03211053     0.15000
C426        C  0.73173909  0.72463113  0.04712773    -0.24000
H427        H  0.87564108  0.64110449  0.93893991     0.05200
H428        H  0.83551347  0.60597374  0.42585182     0.08400
H429        H  0.85981226  0.59771235  0.97072289     0.08400
H430        H  0.71910098  0.75290834  0.51774739     0.08400
H431        H  0.74726192  0.73820670  0.07564378     0.08400
H432        H  0.70498957  0.70581432  0.05866294     0.05200
C433        C  0.94891248  0.34466894  0.26396311    -0.20600
C434        C  0.96547508  0.37771387  0.24067834    -0.07200
C435        C  0.93849276  0.40418699  0.21843836     0.13700
C436        C  0.89546089  0.39592805  0.21897086    -0.20700
C437        C  0.87887192  0.36266105  0.24230157    -0.07200
C438        C  0.90608141  0.33710561  0.26577073     0.13700
C439        C  0.89077932  0.30122664  0.29221477    -0.24000
H440        H  0.96989876  0.32430565  0.28070153     0.15000
H441        H  0.87458964  0.41585232  0.20151946     0.15000
C442        C  0.95478279  0.44171301  0.19544166    -0.24000
H443        H  0.87156752  0.31283190  0.31925295     0.05200
H444        H  0.91689444  0.28344331  0.30605310     0.08400
H445        H  0.87210872  0.27953179  0.27233263     0.08400
H446        H  0.97580429  0.43229889  0.16898989     0.08400
H447        H  0.97211543  0.46197309  0.21815929     0.08400
H448        H  0.92912121  0.46009255  0.18155090     0.05200
C449        C  0.75853914  0.19155206  0.27091743    -0.20600
C450        C  0.78291034  0.21670649  0.24426342    -0.07200
C451        C  0.81732705  0.19943907  0.22223885     0.13700
C452        C  0.82812356  0.15836143  0.23014397    -0.20700
C453        C  0.80441198  0.13355710  0.25771536    -0.07200
C454        C  0.76832619  0.14994874  0.27726058     0.13700
C455        C  0.73917069  0.12367640  0.30346736    -0.24000
H456        H  0.73145448  0.20452136  0.28679161     0.15000
H457        H  0.85511916  0.14520643  0.21427710     0.15000
C458        C  0.84301649  0.22363363  0.19055842    -0.24000
H459        H  0.71058461  0.14082160  0.31273840     0.05200
H460        H  0.75462333  0.11426998  0.33328669     0.08400
H461        H  0.72949518  0.09583343  0.28483839     0.08400
H462        H  0.85654772  0.25165173  0.20591729     0.08400
H463        H  0.82320181  0.23281757  0.16330287     0.08400
H464        H  0.86915738  0.20505871  0.17736909     0.05200
C465        C  0.78133391  0.45782051  0.12663460    -0.20600
C466        C  0.74131614  0.45285784  0.14407704    -0.07200
C467        C  0.70753871  0.47464687  0.12663105     0.13700
C468        C  0.71428816  0.49900581  0.09038657    -0.20700
C469        C  0.75381735  0.50160731  0.07138480    -0.07200
C470        C  0.78804962  0.48182199  0.09036187     0.13700
C471        C  0.83158053  0.48390401  0.07225926    -0.24000
H472        H  0.80722223  0.44091387  0.14006490     0.15000
H473        H  0.68832874  0.51470910  0.07569092     0.15000
C474        C  0.66409265  0.47007728  0.14429951    -0.24000
H475        H  0.85297335  0.49724364  0.09662144     0.05200
H476        H  0.83392009  0.50316982  0.04326721     0.08400
H477        H  0.84218998  0.45220006  0.06376752     0.08400
H478        H  0.66336806  0.48087693  0.17804872     0.08400
H479        H  0.65417139  0.43712409  0.14261036     0.08400
H480        H  0.64127772  0.48859544  0.12611201     0.05200
C481        C  0.77389076  0.46472126  0.35232357    -0.20600
C482        C  0.73462652  0.44714279  0.34411301    -0.07200
C483        C  0.70026708  0.45806413  0.37026510     0.13700
C484        C  0.70661483  0.48523654  0.40485461    -0.20700
C485        C  0.74623097  0.50147482  0.41379721    -0.07200
C486        C  0.78017506  0.49161508  0.38697863     0.13700
C487        C  0.82341075  0.50771696  0.39600804    -0.24000
H488        H  0.80016127  0.45623133  0.33228882     0.15000
H489        H  0.68090252  0.49272548  0.42604789     0.15000
C490        C  0.65757219  0.43938412  0.36369595    -0.24000
H491        H  0.84662073  0.49515150  0.37299314     0.05200
H492        H  0.83308891  0.49880721  0.42863966     0.08400
H493        H  0.82386356  0.54185469  0.39331333     0.08400
H494        H  0.65924374  0.40510907  0.36553457     0.08400
H495        H  0.64524960  0.44841415  0.33208718     0.08400
H496        H  0.63507674  0.45019667  0.38835043     0.05200
C497        C  0.63178820  0.25739437  0.07471729    -0.20600
C498        C  0.60400112  0.28610829  0.05775577    -0.07200
C499        C  0.59984801  0.32553186  0.07721659     0.13700
C500        C  0.62378869  0.33519511  0.11311566    -0.20700
C501        C  0.65285358  0.30718696  0.12947818    -0.07200
C502        C  0.65638655  0.26733673  0.11040059     0.13700
C503        C  0.68523592  0.23486154  0.12759520    -0.24000
H504        H  0.63436894  0.22710641  0.05970859     0.15000
H505        H  0.62088549  0.36584369  0.12723873     0.15000
C506        C  0.57186127  0.35890741  0.06020054    -0.24000
H507        H  0.68124034  0.20470504  0.11070193     0.05200
H508        H  0.67864941  0.22986096  0.16199722     0.08400
H509        H  0.71815872  0.24458281  0.12325274     0.08400
H510        H  0.55625680  0.35024515  0.02994656     0.08400
H511        H  0.54758038  0.36646372  0.08432700     0.08400
H512        H  0.59060207  0.38720796  0.05387551     0.05200
C513        C  0.57670688  0.29652339  0.37353770    -0.20600
C514        C  0.59398852  0.26696440  0.40101902    -0.07200
C515        C  0.63282964  0.24928085  0.39005041     0.13700
C516        C  0.65586850  0.26596539  0.35622928    -0.20700
C517        C  0.64039214  0.29856276  0.33161949    -0.07200
C518        C  0.59918602  0.31209950  0.33855248     0.13700
C519        C  0.57971787  0.34464632  0.31101663    -0.24000
H520        H  0.54659700  0.30963810  0.38096918     0.15000
H521        H  0.68681266  0.25408567  0.34972802     0.15000
C522        C  0.65097862  0.21302150  0.41334790    -0.24000
H523        H  0.54747870  0.35195924  0.32147154     0.05200
H524        H  0.57822133  0.33333502  0.27745439     0.08400
H525        H  0.59839705  0.37364256  0.31257292     0.08400
H526        H  0.62931348  0.20002329  0.43742535     0.08400
H527        H  0.65801603  0.18780684  0.39009607     0.08400
H528        H  0.68030239  0.22263263  0.42941810     0.05200
C529        C  0.44002027  0.23685661  0.51141515    -0.20600
C530        C  0.46762384  0.27280131  0.98765813    -0.07200
C531        C  0.44940080  0.30873453  0.97072613     0.13700
C532        C  0.40640198  0.31348566  0.97348944    -0.20700
C533        C  0.38135150  0.28377507  0.99354393    -0.07200
C534        C  0.39675933  0.24297120  0.51524962     0.13700
C535        C  0.37068101  0.21138723  0.53835442    -0.24000
H536        H  0.45413065  0.20964581  0.52506508     0.15000
H537        H  0.39225177  0.34093556  0.96031238     0.15000
C538        C  0.47508555  0.34272250  0.95077023    -0.24000
H539        H  0.38971118  0.18508190  0.54962617     0.05200
H540        H  0.34631212  0.19885515  0.51664698     0.08400
H541        H  0.35999034  0.23014173  0.06385925     0.08400
H542        H  0.48841658  0.32513098  0.42450257     0.08400
H543        H  0.49936878  0.35359550  0.97345823     0.08400
H544        H  0.45575286  0.36979221  0.94219979     0.05200
C545        C  0.51082910  0.25867924  0.48707688     0.02800
C546        C  0.53224275  0.26222014  0.94585418    -0.13300
C547        C  0.57554764  0.26561569  0.94251299     0.00300
C548        C  0.59931989  0.27151510  0.97972977    -0.11900
C549        C  0.57835776  0.26561212  0.52117385     0.02800
C550        C  0.53498323  0.26182532  0.52410828    -0.11300
H551        H  0.51349880  0.25918639  0.91723818     0.08400
H552        H  0.63264243  0.27662651  0.97737490     0.05900
H553        H  0.51985253  0.26490889  0.55497889     0.05800
O554        O  0.66079386  0.33401972  0.76578467    -0.82100
C555        C  0.83444551  0.35041451  0.73984857     0.97200
O556        O  0.81604740  0.33653648  0.77222561    -0.71200
O557        O  0.76351681  0.38737665  0.80692097    -0.74800
Al558      Al  0.75940339  0.33197053  0.78823425     1.49000
C559        C  0.73335742  0.41189126  0.81024718     0.92500
O560        O  0.71738152  0.41872955  0.70533558    -0.81000
O561        O  0.71690330  0.30225031  0.66857173    -0.74600
Al562      Al  0.69149456  0.37500044  0.73585631     1.90100
O563        O  0.75167608  0.37918837  0.66000150    -0.73700
O564        O  0.78256647  0.27835043  0.71025438    -0.73500
O565        O  0.81496538  0.35685214  0.70576737    -0.79200
O566        O  0.75763667  0.27506455  0.77518287    -0.77400
O567        O  0.73846429  0.34586845  0.73803026    -1.13500
O568        O  0.70751425  0.32392374  0.81550499    -0.72700
C569        C  0.67097979  0.31972516  0.80154849     0.98000
C570        C  0.73739930  0.41403066  0.67088693     0.94400
Al571      Al  0.76429798  0.33049063  0.69015608     1.55600
O572        O  0.70125955  0.40685850  0.78744208    -0.77300
C573        C  0.77401874  0.25782947  0.74312789     0.98600
C574        C  0.68174888  0.31822296  0.66280104     0.93400
O575        O  0.67111274  0.34991599  0.68412617    -0.82700
C576        C  0.76977491  0.58754256  0.49291459     0.02800
C577        C  0.76433294  0.56547369  0.95313540    -0.13300
C578        C  0.75391757  0.52320146  0.95313015     0.00300
C579        C  0.74947100  0.50327768  0.49271373    -0.11900
C580        C  0.75660782  0.52412302  0.53135094     0.02800
C581        C  0.76659666  0.56619917  0.53150186    -0.11300
H582        H  0.76519439  0.58213448  0.92331246     0.08400
H583        H  0.74227287  0.47042566  0.49270014     0.05900
H584        H  0.77240186  0.58217986  0.56152571     0.05800
C585        C  0.81768074  0.08618924  0.76092144     0.02800
C586        C  0.82482642  0.06742616  0.80047302    -0.13300
C587        C  0.83573420  0.02553309  0.80208523     0.00300
C588        C  0.84200443  0.00316570  0.76410374    -0.11900
C589        C  0.83650131  0.02220916  0.72467184     0.02800
C590        C  0.82334953  0.06318916  0.72317922    -0.11300
H591        H  0.82235310  0.08518510  0.82984128     0.08400
H592        H  0.85057126  0.97076314  0.76523668     0.05900
H593        H  0.81793668  0.07731681  0.69244123     0.05800
O594        O  0.87284660  0.91966735  0.54595332    -0.82100
C595        C  0.80846570  0.76108918  0.50351505     0.97200
O596        O  0.80473125  0.77982393  0.53869843    -0.71200
O597        O  0.87421814  0.80180239  0.57569924    -0.74800
Al598      Al  0.82580055  0.83092678  0.56012754     1.49000
C599        C  0.90940840  0.81846049  0.58079556     0.92500
O600        O  0.92152013  0.83827772  0.98059258    -0.81000
O601        O  0.81863207  0.89437393  0.94950166    -0.74600
Al602      Al  0.89568486  0.87666121  0.51144480     1.90100
O603        O  0.87148114  0.82942509  0.93360333    -0.73700
O604        O  0.76570592  0.84453465  0.98515542    -0.73500
O605        O  0.82051184  0.78025648  0.97261193    -0.79200
O606        O  0.77500122  0.85746505  0.55124551    -0.77400
O607        O  0.84780900  0.84821694  0.51104621    -1.13500
O608        O  0.84146954  0.87879874  0.59201951    -0.72700
C609        C  0.85486236  0.91400079  0.58134352     0.98000
C610        C  0.90900824  0.82530541  0.94469001     0.94400
Al611      Al  0.82113058  0.83808010  0.96443029     1.55600
O612        O  0.91873570  0.85044878  0.56014484    -0.77300
C613        C  0.75268001  0.85593500  0.51851571     0.98600
C614        C  0.84961672  0.91805898  0.94587280     0.93400
O615        O  0.88199270  0.91178127  0.96747135    -0.82700
C616        C  0.07135537  0.76170123  0.76421696     0.02800
C617        C  0.04988759  0.76298511  0.72551331    -0.13300
C618        C  0.00656233  0.76741945  0.72527058     0.00300
C619        C  0.98506079  0.77041580  0.76425545    -0.11900
C620        C  0.00621783  0.76670423  0.80323728     0.02800
C621        C  0.04950153  0.76168363  0.80281939    -0.11300
H622        H  0.06719674  0.76337445  0.69574184     0.08400
H623        H  0.95210290  0.77744015  0.76421266     0.05900
H624        H  0.06660001  0.76105139  0.83259695     0.05800
C625        C  0.25395234  0.05422034  0.73547869     0.02800
C626        C  0.24624341  0.07134508  0.69521879    -0.13300
C627        C  0.23927606  0.11402110  0.69155177     0.00300
C628        C  0.23987987  0.13936552  0.72816561    -0.11900
C629        C  0.24792671  0.12255377  0.76825182     0.02800
C630        C  0.25452108  0.07999673  0.77182792    -0.11300
H631        H  0.24726933  0.05200116  0.66677920     0.08400
H632        H  0.23451589  0.17234372  0.72535982     0.05900
H633        H  0.26093378  0.06701214  0.80288368     0.05800
O634        O  0.16448363  0.30443424  0.96024561    -0.82100
C635        C  0.33342868  0.28634008  0.49597839     0.97200
O636        O  0.32019364  0.30907619  0.96243621    -0.71200
O637        O  0.27045607  0.25880397  0.92022852    -0.74800
Al638      Al  0.26410349  0.31292868  0.94318673     1.49000
C639        C  0.24130891  0.23284941  0.91506915     0.92500
O640        O  0.20336221  0.22703354  0.52134573    -0.81000
O641        O  0.21627246  0.33915983  0.56368134    -0.74600
Al642      Al  0.18678018  0.27395335  0.48983502     1.90100
O643        O  0.24288343  0.25886406  0.56867388    -0.73700
O644        O  0.28552964  0.36027577  0.52532521    -0.73500
O645        O  0.31076655  0.27851401  0.52771465    -0.79200
O646        O  0.26018790  0.36941084  0.96052323    -0.77400
O647        O  0.23707455  0.29776236  0.49213249    -1.13500
O648        O  0.21319838  0.31989380  0.91362190    -0.72700
C649        C  0.17548383  0.31882059  0.92476711     0.98000
C650        C  0.22326327  0.22716832  0.55592059     0.94400
Al651      Al  0.26165391  0.30825189  0.54207683     1.55600
O652        O  0.20900746  0.23507270  0.93812896    -0.77300
C653        C  0.27937709  0.38290617  0.49327882     0.98600
C654        C  0.17869032  0.32817644  0.56526760     0.93400
O655        O  0.16524887  0.30047396  0.54000743    -0.82700
C656        C  0.01042492  0.38228444  0.74772667     0.02800
C657        C  0.03194782  0.37536137  0.78583666    -0.13300
C658        C  0.07480693  0.36849763  0.78510737     0.00300
C659        C  0.09671078  0.37096037  0.74648993    -0.11900
C660        C  0.07546631  0.37692768  0.70813105     0.02800
C661        C  0.03242781  0.38383209  0.70899340    -0.11300
H662        H  0.01478415  0.37161225  0.81543933     0.08400
H663        H  0.12975520  0.36421162  0.74586128     0.05900
H664        H  0.01565941  0.38675521  0.67925586     0.05800
C665        C  0.32754150  0.55358422  0.51130435     0.02800
C666        C  0.33213945  0.56968711  0.55278027    -0.13300
C667        C  0.34087211  0.61178628  0.55892668     0.00300
C668        C  0.34576730  0.63753273  0.52350031    -0.11900
C669        C  0.33763702  0.62255569  0.98417929     0.02800
C670        C  0.32770424  0.58054374  0.97945988    -0.11300
H671        H  0.32762319  0.54982315  0.58010890     0.08400
H672        H  0.35187875  0.67028098  0.52845857     0.05900
H673        H  0.32124238  0.56784816  0.94799928     0.05800
O674        O  0.36019056  0.71760436  0.73856790    -0.82100
C675        C  0.30455254  0.88439921  0.75908218     0.97200
O676        O  0.29444656  0.85830028  0.73075290    -0.71200
O677        O  0.36288125  0.83084344  0.69355702    -0.74800
Al678      Al  0.31563786  0.80447962  0.71671009     1.49000
C679        C  0.39839552  0.81452839  0.69061602     0.92500
O680        O  0.42023995  0.80375664  0.79531938    -0.81000
O681        O  0.31549527  0.76649559  0.84076373    -0.74600
Al682      Al  0.38669159  0.76346465  0.76681098     1.90100
O683        O  0.37344560  0.82815516  0.83970679    -0.73700
O684        O  0.26365891  0.81152152  0.79766332    -0.73500
O685        O  0.32391318  0.87286912  0.79181391    -0.79200
O686        O  0.26676837  0.77838236  0.73594122    -0.77400
O687        O  0.34140924  0.79527808  0.76589907    -1.13500
O688        O  0.32933968  0.75360776  0.68948950    -0.72700
C689        C  0.34226092  0.71952895  0.70295587     0.98000
C690        C  0.41094479  0.82382269  0.82866729     0.94400
Al691      Al  0.32099371  0.81791545  0.81350253     1.55600
O692        O  0.40868622  0.78460791  0.71423425    -0.77300
C693        C  0.24677786  0.79003699  0.76847014     0.98600
C694        C  0.34219967  0.73845778  0.84457290     0.93400
O695        O  0.37314188  0.73691821  0.81950353    -0.82700
C696        C  0.57516918  0.86775703  0.52091418     0.02800
C697        C  0.54883734  0.86697075  0.55676361    -0.13300
C698        C  0.50622593  0.85933707  0.55173897     0.00300
C699        C  0.48935370  0.85566431  0.51086456    -0.11900
C700        C  0.51418025  0.86262708  0.97090501     0.02800
C701        C  0.55709598  0.86811635  0.97644727    -0.11300
H702        H  0.56163769  0.87012422  0.58857012     0.08400
H703        H  0.45638326  0.84914526  0.50709699     0.05900
H704        H  0.57756540  0.86818841  0.94888356     0.05800
C705        C  0.47619403  0.81175496  0.86859094    -0.20600
C706        C  0.44399497  0.83894351  0.85784192    -0.07200
C707        C  0.44051127  0.87699965  0.88020790     0.13700
C708        C  0.46639673  0.88527064  0.91503020    -0.20700
C709        C  0.49577831  0.85646127  0.92823576    -0.07200
C710        C  0.50205241  0.81992415  0.90387230     0.13700
C711        C  0.53388206  0.78832902  0.91664345    -0.24000
H712        H  0.47911711  0.78261510  0.85137243     0.15000
H713        H  0.46239411  0.91362383  0.93343812     0.15000
C714        C  0.41020424  0.90941917  0.86704631    -0.24000
H715        H  0.53332594  0.76080263  0.89510249     0.05200
H716        H  0.52752222  0.77773558  0.94965553     0.08400
H717        H  0.56557176  0.80208918  0.91507055     0.08400
H718        H  0.37778234  0.89804918  0.87078070     0.08400
H719        H  0.41701822  0.91717964  0.83338350     0.08400
H720        H  0.41329315  0.93824417  0.88646039     0.05200
C721        C  0.44941653  0.79710132  0.63493406    -0.20600
C722        C  0.42725163  0.82798250  0.65685684    -0.07200
C723        C  0.43194373  0.86989653  0.64481037     0.13700
C724        C  0.45892497  0.87971088  0.61095651    -0.20700
C725        C  0.48035218  0.84854478  0.58877095    -0.07200
C726        C  0.47545788  0.80680358  0.60066093     0.13700
C727        C  0.49718854  0.77236540  0.57678858    -0.24000
H728        H  0.44531026  0.76495866  0.64382261     0.15000
H729        H  0.46281262  0.91162316  0.60124512     0.15000
C730        C  0.40936271  0.90430550  0.66787575    -0.24000
H731        H  0.48947590  0.74151000  0.59012080     0.05200
H732        H  0.53131709  0.77682659  0.57898072     0.08400
H733        H  0.48773246  0.77227919  0.54273160     0.08400
H734        H  0.41661467  0.90334615  0.70247550     0.08400
H735        H  0.37525662  0.90106843  0.66319618     0.08400
H736        H  0.41874078  0.93521431  0.65581489     0.05200
C737        C  0.30841501  0.68191811  0.94582721    -0.20600
C738        C  0.33780977  0.65017016  0.94697854    -0.07200
C739        C  0.36767219  0.64662869  0.91412505     0.13700
C740        C  0.36733104  0.67510831  0.88065034    -0.20700
C741        C  0.33830555  0.70763948  0.87946788    -0.07200
C742        C  0.30825833  0.71093184  0.91285988     0.13700
C743        C  0.27662525  0.74527429  0.91543564    -0.24000
H744        H  0.28578405  0.68434120  0.97151529     0.15000
H745        H  0.39060422  0.67229029  0.85568561     0.15000
C746        C  0.40102988  0.61400718  0.91524725    -0.24000
H747        H  0.25635307  0.74264484  0.94410038     0.05200
H748        H  0.25599184  0.74418315  0.88715912     0.08400
H749        H  0.29273389  0.77572899  0.91749162     0.08400
H750        H  0.38679074  0.58269189  0.91336332     0.08400
H751        H  0.41905452  0.61706166  0.94532594     0.08400
H752        H  0.42313213  0.61696746  0.88808681     0.05200
C753        C  0.30266890  0.64767851  0.61642797    -0.20600
C754        C  0.34016144  0.63063634  0.60198686    -0.07200
C755        C  0.37678982  0.63657201  0.62603034     0.13700
C756        C  0.37580959  0.66264828  0.66225952    -0.20700
C757        C  0.33904735  0.68309603  0.67427332    -0.07200
C758        C  0.30159376  0.67383650  0.65235209     0.13700
C759        C  0.26046332  0.69161204  0.66647209    -0.24000
H760        H  0.27450986  0.64219965  0.59813522     0.15000
H761        H  0.40445870  0.66961397  0.67916421     0.15000
C762        C  0.41706737  0.61687177  0.61223564    -0.24000
H763        H  0.23431024  0.67976613  0.64659730     0.05200
H764        H  0.26071226  0.72580344  0.66404495     0.08400
H765        H  0.25426415  0.68252005  0.69987458     0.08400
H766        H  0.42593186  0.62784062  0.57996298     0.08400
H767        H  0.41322258  0.58268349  0.61126420     0.07200
H768        H  0.44283154  0.62461586  0.63455568     0.05200
C769        C  0.32751031  0.43768408  0.01608435    -0.20600
C770        C  0.29114456  0.42677059  0.49574524    -0.07200
C771        C  0.26097169  0.45834283  0.49502592     0.13700
C772        C  0.27380774  0.49969507  0.49964692    -0.20700
C773        C  0.31595859  0.50983727  0.50502043    -0.07200
C774        C  0.34029332  0.47881767  0.02230581     0.13700
C775        C  0.38278391  0.48754253  0.04081740    -0.24000
H776        H  0.34780151  0.41282193  0.02592353     0.15000
H777        H  0.25090362  0.52422529  0.49964266     0.15000
C778        C  0.21526565  0.44843595  0.49081855    -0.24000
H779        H  0.40041260  0.45857985  0.04619196     0.05200
H780        H  0.37992601  0.50374163  0.07203417     0.08400
H781        H  0.40112943  0.50701939  0.01851009     0.08400
H782        H  0.20532352  0.42707439  0.51632806     0.08400
H783        H  0.20920216  0.43322329  0.45976546     0.08400
H784        H  0.19581703  0.47671073  0.49290401     0.05200
C785        C  0.13357938  0.39162399  0.65840343    -0.20600
C786        C  0.09767299  0.36853596  0.66756621    -0.07200
C787        C  0.08757156  0.33372393  0.64185200     0.13700
C788        C  0.11330124  0.32346055  0.60720510    -0.20700
C789        C  0.15040380  0.34535776  0.59879975    -0.07200
C790        C  0.16062388  0.38013188  0.62506943     0.13700
C791        C  0.20027396  0.40478175  0.61967946    -0.24000
H792        H  0.14155679  0.41764603  0.67901933     0.15000
H793        H  0.10537386  0.29647142  0.58799768     0.15000
C794        C  0.05161499  0.30527667  0.65255680    -0.24000
H795        H  0.20192422  0.43148579  0.64225253     0.05200
H796        H  0.20206846  0.41727534  0.58701398     0.08400
H797        H  0.22767551  0.38502529  0.62602592     0.08400
H798        H  0.02161776  0.32163102  0.64899370     0.08400
H799        H  0.05469507  0.29410164  0.68580467     0.08400
H800        H  0.05060690  0.27768074  0.63112769     0.05200
C801        C  0.14120093  0.30373835  0.85736133    -0.20600
C802        C  0.14432368  0.32973249  0.89313366    -0.07200
C803        C  0.12058113  0.36615192  0.89578597     0.13700
C804        C  0.09683483  0.37777048  0.86039997    -0.20700
C805        C  0.09581919  0.35293408  0.82336349    -0.07200
C806        C  0.11619731  0.31417107  0.82289414     0.13700
C807        C  0.11189263  0.28278237  0.78712844    -0.24000
H808        H  0.15861650  0.27500603  0.85629235     0.15000
H809        H  0.08012137  0.40685249  0.86106020     0.15000
C810        C  0.12162044  0.39320168  0.93504587    -0.24000
H811        H  0.14253112  0.27826969  0.77126476     0.05200
H812        H  0.08870907  0.29161594  0.76282940     0.08400
H813        H  0.10132437  0.25274540  0.80044593     0.08400
H814        H  0.15393568  0.40363708  0.94074364     0.08400
H815        H  0.11050133  0.37542304  0.96305102     0.08400
H816        H  0.10168662  0.42095502  0.93163931     0.05200
C817        C  0.19405882  0.15008701  0.64047857    -0.20600
C818        C  0.23339531  0.13365927  0.64969158    -0.07200
C819        C  0.26765810  0.14313786  0.62295230     0.13700
C820        C  0.26239480  0.17147149  0.58990854    -0.20700
C821        C  0.22393399  0.19032236  0.58291037    -0.07200
C822        C  0.18891811  0.17843090  0.60723520     0.13700
C823        C  0.14697487  0.19778618  0.60010154    -0.24000
H824        H  0.16793573  0.14277911  0.66113691     0.15000
H825        H  0.28907758  0.18068701  0.57094750     0.15000
C826        C  0.31074982  0.12622397  0.62981496    -0.24000
H827        H  0.12303741  0.18533398  0.62228678     0.05200
H828        H  0.13656269  0.19135655  0.56691448     0.08400
H829        H  0.14912234  0.23177801  0.60528305     0.08400
H830        H  0.31261434  0.10472881  0.65701245     0.08400
H831        H  0.33281142  0.15219396  0.63594041     0.08400
H832        H  0.32093607  0.10922074  0.60064253     0.05200
C833        C  0.21591376  0.14485164  0.83633395    -0.20600
C834        C  0.24829185  0.14926707  0.80678229    -0.07200
C835        C  0.28003591  0.17873129  0.81437776     0.13700
C836        C  0.27759911  0.20440382  0.85072699    -0.20700
C837        C  0.24408299  0.20150308  0.87979792    -0.07200
C838        C  0.21313070  0.17048946  0.87264600     0.13700
C839        C  0.17677888  0.16386724  0.90248267    -0.24000
H840        H  0.19205805  0.12161461  0.83032866     0.15000
H841        H  0.30175030  0.22749052  0.85583831     0.15000
C842        C  0.31674429  0.18268429  0.78452220    -0.24000
H843        H  0.18825966  0.15770913  0.93520037     0.05200
H844        H  0.15726728  0.13696168  0.89255108     0.08400
H845        H  0.15634013  0.19146274  0.90264416     0.08400
H846        H  0.30609797  0.19195208  0.75236820     0.08400
H847        H  0.33310712  0.15255924  0.78201117     0.08400
H848        H  0.33944307  0.20634973  0.79598035     0.05200
C849        C  0.30543405  0.00225527  0.75667960    -0.20600
C850        C  0.26606593  0.01039478  0.73981143    -0.07200
C851        C  0.23884822  0.97712314  0.73020270     0.13700
C852        C  0.25250849  0.93633493  0.73634846    -0.20700
C853        C  0.29193607  0.92816394  0.75371485    -0.07200
C854        C  0.31829545  0.96177402  0.76454245     0.13700
C855        C  0.35947761  0.95544927  0.78549306    -0.24000
H856        H  0.32591203  0.02799049  0.76470536     0.15000
H857        H  0.23184727  0.91068666  0.72863546     0.15000
C858        C  0.19494882  0.98454088  0.71543473    -0.24000
H859        H  0.37718782  0.98485074  0.78966190     0.05200
H860        H  0.37877610  0.93372235  0.76630987     0.08400
H861        H  0.35311180  0.94295710  0.81756678     0.08400
H862        H  0.19519893  0.00042853  0.68423420     0.08400
H863        H  0.17828691  0.00399555  0.73934232     0.08400
H864        H  0.17729819  0.95507316  0.71149714     0.05200
C865        C  0.17598642  0.81457892  0.75954871    -0.20600
C866        C  0.20226573  0.78201279  0.77011346    -0.07200
C867        C  0.18587304  0.74254961  0.77928278     0.13700
C868        C  0.14274938  0.73620591  0.77660918    -0.20700
C869        C  0.11646012  0.76861545  0.76488617    -0.07200
C870        C  0.13306115  0.80841648  0.75686234     0.13700
C871        C  0.10561422  0.84459538  0.74619183    -0.24000
H872        H  0.18925500  0.84476378  0.75275436     0.15000
H873        H  0.12946780  0.70614308  0.78379653     0.15000
C874        C  0.21371394  0.70774434  0.79279911    -0.24000
H875        H  0.12389339  0.87367179  0.74259878     0.05200
H876        H  0.08237967  0.84953951  0.77205017     0.08400
H877        H  0.08924101  0.83856503  0.71563446     0.08400
H878        H  0.22996552  0.71651901  0.82272766     0.08400
H879        H  0.23737768  0.70144486  0.76784790     0.08400
H880        H  0.19581068  0.67879140  0.79850893     0.05200
C881        C  0.68230652  0.83696248  0.04696945    -0.20600
C882        C  0.70811440  0.86367498  0.52308308    -0.07200
C883        C  0.68791507  0.89619156  0.50217315     0.13700
C884        C  0.64429580  0.89841432  0.50411356    -0.20700
C885        C  0.62090487  0.86827619  0.52590692    -0.07200
C886        C  0.63890841  0.83855431  0.04589609     0.13700
C887        C  0.61466534  0.80344105  0.06554879    -0.24000
H888        H  0.69753545  0.81207388  0.06377942     0.15000
H889        H  0.62830443  0.92278742  0.48742532     0.15000
C890        C  0.71232972  0.92836783  0.47808196    -0.24000
H891        H  0.63549514  0.77916663  0.07825010     0.05200
H892        H  0.59464526  0.78863544  0.04087357     0.08400
H893        H  0.60079643  0.81298521  0.59719723     0.08400
H894        H  0.73050369  0.91286589  0.95179341     0.08400
H895        H  0.73475462  0.94399315  0.49990418     0.08400
H896        H  0.69172230  0.95232496  0.46446909     0.05200
C897        C  0.92518728  0.76789678  0.63769319    -0.20600
C898        C  0.93828959  0.80218629  0.61358322    -0.07200
C899        C  0.97675032  0.82179172  0.62401338     0.13700
C900        C  0.99913377  0.80817081  0.65946846    -0.20700
C901        C  0.98461392  0.77555120  0.68478303    -0.07200
C902        C  0.94797508  0.75411305  0.67278477     0.13700
C903        C  0.93212741  0.71645344  0.69596593    -0.24000
H904        H  0.89640564  0.75194456  0.62973893     0.15000
H905        H  0.02734697  0.82444896  0.66870810     0.15000
C906        C  0.99436670  0.85779890  0.59927943    -0.24000
H907        H  0.92807555  0.69046250  0.67285024     0.05200
H908        H  0.90156865  0.72343173  0.71100595     0.08400
H909        H  0.95375571  0.70568401  0.72093194     0.08400
H910        H  0.97347652  0.88494855  0.60226263     0.08400
H911        H  0.99833158  0.84884703  0.56518654     0.08400
H912        H  0.02538837  0.86766844  0.61138241     0.05200
C913        C  0.00122453  0.80523834  0.87191479    -0.20600
C914        C  0.98420777  0.77522842  0.84402076    -0.07200
C915        C  0.94490290  0.75762870  0.85359245     0.13700
C916        C  0.92185786  0.77374461  0.88780227    -0.20700
C917        C  0.93778368  0.80557296  0.91401855    -0.07200
C918        C  0.97880516  0.82015385  0.90726279     0.13700
C919        C  0.99848580  0.85270096  0.93568776    -0.24000
H920        H  0.03144282  0.81866893  0.86488143     0.15000
H921        H  0.89088216  0.76151615  0.89385581     0.15000
C922        C  0.92636487  0.72181471  0.82875038    -0.24000
H923        H  0.03027783  0.86124014  0.92466196     0.05200
H924        H  0.00116677  0.84076973  0.96866276     0.08400
H925        H  0.97939930  0.88117311  0.93607379     0.08400
H926        H  0.94824734  0.70846229  0.80499321     0.08400
H927        H  0.89780047  0.73205815  0.81209325     0.08400
H928        H  0.91793408  0.69658590  0.85105851     0.05200
C929        C  0.80743950  0.98813797  0.66065391    -0.20600
C930        C  0.84259763  0.99870273  0.68479462    -0.07200
C931        C  0.88251586  0.98601489  0.67116601     0.13700
C932        C  0.88609345  0.96077273  0.63469979    -0.20700
C933        C  0.85058246  0.94782401  0.61234001    -0.07200
C934        C  0.81090950  0.96227760  0.62476005     0.13700
C935        C  0.77216491  0.94965076  0.60089198    -0.24000
H936        H  0.77702664  0.99865404  0.67109007     0.15000
H937        H  0.91636537  0.94928721  0.62496136     0.15000
C938        C  0.92114126  0.99885440  0.69517802    -0.24000
H939        H  0.74416410  0.96587393  0.61332748     0.05200
H940        H  0.76674018  0.91598154  0.60447068     0.08400
H941        H  0.77573307  0.95720441  0.56658019     0.08400
H942        H  0.92015132  0.98646576  0.72807208     0.08400
H943        H  0.92321728  0.03316420  0.69672004     0.08400
H944        H  0.94981075  0.98706175  0.67941335     0.05200
C945        C  0.87910908  0.98958028  0.85481079    -0.20600
C946        C  0.83983807  0.00413784  0.84315731    -0.07200
C947        C  0.80454672  0.99346370  0.86770254     0.13700
C948        C  0.80936229  0.96778731  0.90308440    -0.20700
C949        C  0.84834629  0.95142280  0.91379651    -0.07200
C950        C  0.88388006  0.96298056  0.88953763     0.13700
C951        C  0.92631319  0.94509724  0.89767306    -0.24000
H952        H  0.90585788  0.99747363  0.83521421     0.15000
H953        H  0.78213465  0.95896170  0.92139530     0.15000
C954        C  0.76148878  0.00697515  0.85516017    -0.24000
H955        H  0.94989616  0.95642671  0.87447280     0.05200
H956        H  0.92476439  0.91086106  0.89451670     0.08400
H957        H  0.93712514  0.95407494  0.93009996     0.08400
H958        H  0.75445916  0.99606210  0.82221331     0.08400
H959        H  0.75953534  0.04116769  0.85662597     0.08400
H960        H  0.73723503  0.99426237  0.87682847     0.05200
C961        C  0.82535885  0.69033085  0.47937891    -0.20600
C962        C  0.79771080  0.71694044  0.50062170    -0.07200
C963        C  0.76052734  0.70098526  0.51850085     0.13700
C964        C  0.75202801  0.65861631  0.51473405    -0.20700
C965        C  0.77977776  0.63199230  0.49374404    -0.07200
C966        C  0.81707495  0.64781800  0.47613223     0.13700
C967        C  0.84876238  0.61995896  0.45523248    -0.24000
H968        H  0.85393904  0.70280101  0.46601019     0.15000
H969        H  0.72355720  0.64605524  0.52825403     0.15000
C970        C  0.72902222  0.72851848  0.54018484    -0.24000
H971        H  0.87732877  0.63726278  0.44594793     0.05200
H972        H  0.83394226  0.60865800  0.92076145     0.08400
H973        H  0.85791988  0.59516323  0.47757687     0.08400
H974        H  0.71924500  0.74962706  0.02687904     0.08400
H975        H  0.74267393  0.74293581  0.56926969     0.08400
H976        H  0.70082077  0.71099870  0.55018349     0.05200
C977        C  0.94932811  0.33861797  0.76156128    -0.20600
C978        C  0.96489756  0.37659404  0.74716058    -0.07200
C979        C  0.93736480  0.40638733  0.73091308     0.13700
C980        C  0.89478843  0.39665404  0.72807171    -0.20700
C981        C  0.87936689  0.35836860  0.74216259    -0.07200
C982        C  0.90703603  0.32899877  0.75947188     0.13700
C983        C  0.89407439  0.28663893  0.77487046    -0.24000
H984        H  0.97068861  0.31563649  0.77366845     0.15000
H985        H  0.87328913  0.41930895  0.71566078     0.15000
C986        C  0.95250896  0.44875980  0.71826299    -0.24000
H987        H  0.90080627  0.28418577  0.80949493     0.05200
H988        H  0.91222710  0.26260745  0.75747502     0.08400
H989        H  0.86086269  0.27916542  0.76995201     0.08400
H990        H  0.97462085  0.44645225  0.69112107     0.08400
H991        H  0.96830648  0.46392790  0.74581162     0.08400
H992        H  0.92638868  0.46885264  0.70832416     0.05200
C993        C  0.76099802  0.18853851  0.77280147    -0.20600
C994        C  0.78436233  0.21351861  0.74508117    -0.07200
C995        C  0.81795301  0.19602107  0.72183208     0.13700
C996        C  0.82911309  0.15506649  0.72971793    -0.20700
C997        C  0.80607336  0.13022355  0.75781919    -0.07200
C998        C  0.77073155  0.14683374  0.77868913     0.13700
C999        C  0.74205366  0.12072094  0.80563902    -0.24000
H1000       H  0.73450924  0.20162773  0.78962158     0.15000
H1001       H  0.85563968  0.14189825  0.71302746     0.15000
C1002       C  0.84203464  0.21954090  0.68832143    -0.24000
H1003       H  0.71351244  0.13785628  0.81507239     0.05200
H1004       H  0.75783606  0.11176648  0.83545794     0.08400
H1005       H  0.73218481  0.09265457  0.78747724     0.08400
H1006       H  0.85619586  0.24794071  0.70215534     0.08400
H1007       H  0.82089808  0.22799406  0.66186202     0.08400
H1008       H  0.86760477  0.20075600  0.67427578     0.05200
C1009       C  0.78193217  0.44940291  0.61879696    -0.20600
C1010       C  0.74404522  0.44848079  0.64129575    -0.07200
C1011       C  0.71190187  0.47602929  0.63022233     0.13700
C1012       C  0.71787793  0.50240997  0.59540664    -0.20700
C1013       C  0.75478281  0.50118794  0.57143185    -0.07200
C1014       C  0.78766420  0.47525183  0.58382306     0.13700
C1015       C  0.82862282  0.47316930  0.56018358    -0.24000
H1016       H  0.80672743  0.42844332  0.62747349     0.15000
H1017       H  0.69290081  0.52254126  0.58542763     0.15000
C1018       C  0.67043763  0.47577189  0.65288277    -0.24000
H1019       H  0.85443119  0.48063203  0.58253368     0.05200
H1020       H  0.83064695  0.49513655  0.53328854     0.08400
H1021       H  0.83317097  0.44137809  0.54723062     0.08400
H1022       H  0.67478976  0.48414327  0.68703769     0.08400
H1023       H  0.65595223  0.44453818  0.65029975     0.08400
H1024       H  0.64853779  0.49838972  0.63893281     0.05200
C1025       C  0.77419353  0.46481580  0.84957403    -0.20600
C1026       C  0.73560641  0.44525988  0.84282347    -0.07200
C1027       C  0.70197318  0.45417354  0.87069910     0.13700
C1028       C  0.70832313  0.48140311  0.90535350    -0.20700
C1029       C  0.74730756  0.49993178  0.91273561    -0.07200
C1030       C  0.78045595  0.49211483  0.88405892     0.13700
C1031       C  0.82302390  0.51086788  0.89076029    -0.24000
H1032       H  0.79997314  0.45777323  0.82831258     0.15000
H1033       H  0.68313020  0.48726561  0.92771047     0.15000
C1034       C  0.66017291  0.43325350  0.86573399    -0.24000
H1035       H  0.84589561  0.49925175  0.86687752     0.05200
H1036       H  0.83471623  0.50318866  0.92303074     0.08400
H1037       H  0.82134428  0.54488684  0.88735693     0.08400
H1038       H  0.66387182  0.39911940  0.86701711     0.08400
H1039       H  0.64614366  0.44193717  0.83478590     0.08400
H1040       H  0.63813814  0.44255949  0.89145328     0.05200
C1041       C  0.62973046  0.24936059  0.57792933    -0.20600
C1042       C  0.60277507  0.27788195  0.55922230    -0.07200
C1043       C  0.60075818  0.31866151  0.57559337     0.13700
C1044       C  0.62591723  0.33011208  0.61020734    -0.20700
C1045       C  0.65375138  0.30209658  0.62868490    -0.07200
C1046       C  0.65530359  0.26085947  0.61257190     0.13700
C1047       C  0.68317408  0.22863430  0.63181784    -0.24000
H1048       H  0.63103857  0.21812593  0.56502727     0.15000
H1049       H  0.62475364  0.36176557  0.62197013     0.15000
C1050       C  0.57317546  0.35068341  0.55554248    -0.24000
H1051       H  0.67803197  0.19761608  0.61706333     0.05200
H1052       H  0.67672506  0.22612102  0.66655719     0.08400
H1053       H  0.71636204  0.23697836  0.62663507     0.08400
H1054       H  0.58144290  0.35414677  0.52130423     0.08400
H1055       H  0.54003101  0.34118004  0.55829210     0.08400
H1056       H  0.57661695  0.38145308  0.57132564     0.05200
C1057       C  0.57908132  0.30234943  0.87373466    -0.20600
C1058       C  0.59501390  0.27126654  0.90014907    -0.07200
C1059       C  0.63186405  0.25060937  0.88801198     0.13700
C1060       C  0.65456116  0.26522092  0.85307918    -0.20700
C1061       C  0.64062221  0.29903722  0.82930180    -0.07200
C1062       C  0.60126693  0.31624664  0.83807412     0.13700
C1063       C  0.58384505  0.35101452  0.81196055    -0.24000
H1064       H  0.55056779  0.31789578  0.88261903     0.15000
H1065       H  0.68429588  0.25115271  0.84536838     0.15000
C1066       C  0.64832190  0.21364047  0.91143625    -0.24000
H1067       H  0.55304293  0.36132463  0.82415145     0.05200
H1068       H  0.57972413  0.34045366  0.77839355     0.08400
H1069       H  0.60529675  0.37803386  0.81282804     0.08400
H1070       H  0.62697960  0.20293794  0.93698467     0.08400
H1071       H  0.65235164  0.18742803  0.88860009     0.08400
H1072       H  0.67898353  0.22141825  0.92580351     0.05200
C1073       C  0.44296389  0.24351039  0.00870674    -0.20600
C1074       C  0.46538669  0.26548463  0.48990259    -0.07200
C1075       C  0.44756098  0.30196292  0.47367343     0.13700
C1076       C  0.40452966  0.30747645  0.47657188    -0.20700
C1077       C  0.37871171  0.27823636  0.49647494    -0.07200
C1078       C  0.39980352  0.24864880  0.01214187     0.13700
C1079       C  0.37441298  0.21627279  0.03490834    -0.24000
H1080       H  0.45761540  0.21659294  0.02240312     0.15000
H1081       H  0.39092069  0.33524413  0.46353578     0.15000
C1082       C  0.47382069  0.33601318  0.45459215    -0.24000
H1083       H  0.39389298  0.18996516  0.04536006     0.05200
H1084       H  0.34981750  0.20383838  0.01340444     0.08400
H1085       H  0.35579996  0.22592126  0.56677032     0.08400
H1086       H  0.48991299  0.33123268  0.92104854     0.08400
H1087       H  0.49834862  0.34582496  0.47753745     0.08400
H1088       H  0.45497105  0.36366321  0.44689966     0.05200
loop_ 
_geom_bond_atom_site_label_1 
_geom_bond_atom_site_label_2 
_geom_bond_distance 
_geom_bond_site_symmetry_2 
_ccdc_geom_bond_type 
C1            C6   1.396   1_556  A
C1          C546   1.397       .  A
C1          C530   1.464       .  S
C2            C3   1.405       .  A
C2          C545   1.405       .  A
C2            H7   1.084       .  S
C3            C4   1.408       .  A
C3          C514   1.492       .  S
C4          C549   1.402       .  A
C4            H8   1.084       .  S
C5            C6   1.397       .  A
C5          C548   1.401   1_554  A
C5          C498   1.471       .  S
C6            H9   1.084       .  S
O10          C25   1.263       .  A
O10         Al18   1.912       .  S
C11         C437   1.478       .  S
C11          O21   1.258       .  A
C11          O12   1.258       .  A
O12         Al14   1.901       .  S
O13          C15   1.258       .  A
O13         Al14   1.875       .  S
Al14         O22   1.873       .  S
Al14         O24   1.898       .  S
Al14         O23   1.774       .  S
C15         C482   1.472       .  S
C15          O28   1.263       .  A
O16          C26   1.264       .  A
O16         Al18   1.908       .  S
O17          C30   1.258       .  A
O17         Al27   1.887       .  S
Al18         O31   1.906       .  S
Al18         O28   1.920       .  S
Al18         O23   1.786       .  S
O19          C26   1.260       .  A
O19         Al27   1.886       .  S
O20          C29   1.261       .  A
O20         Al27   1.907       .  S
O21         Al27   1.897       .  S
O22          C29   1.257       .  A
O23         Al27   1.779       .  S
O24          C25   1.261       .  A
C25         C517   1.480       .  S
C26         C466   1.468       .  S
C29         C450   1.472       .  S
C30         C501   1.481       .  S
C30          O31   1.262       .  A
C32          C37   1.401   1_556  A
C32         C577   1.405       .  A
C32         C421   1.475       .  S
C33          C34   1.400       .  A
C33         C576   1.402       .  A
C33          H38   1.084       .  S
C34         C579   1.399       .  A
C34         C485   1.471       .  S
C35          C36   1.400   1_556  A
C35         C578   1.403       .  A
C35          H39   1.084       .  S
C36          C37   1.394       .  A
C36         C469   1.469       .  S
C37          H40   1.084       .  S
C41          C42   1.408       .  A
C41          C46   1.401       .  A
C41         C453   1.475       .  S
C42          C43   1.404       .  A
C42          H47   1.082       .  S
C43          C44   1.401       .  A
C43         C402   1.478       .  S
C44          C45   1.394       .  A
C44          H48   1.084   1_545  S
C45          C46   1.390       .  A
C45         C386   1.464       .  S
C46          H49   1.084       .  S
O50          C65   1.263       .  A
O50         Al58   1.901       .  S
C51         C418   1.472       .  S
C51          O52   1.257       .  A
C51         O605   1.257   1_554  A
O52         Al54   1.898       .  S
O53          C55   1.259       .  A
O53         Al54   1.892       .  S
Al54         O62   1.877       .  S
Al54         O64   1.899       .  S
Al54         O63   1.782       .  S
C55         C354   1.490       .  S
C55          O68   1.261       .  A
O56          C66   1.263       .  A
O56        Al602   1.899       .  S
O57          C70   1.258       .  A
O57         Al67   1.891       .  S
Al58         O68   1.915       .  S
Al58        O600   1.896   1_554  S
Al58        O615   1.918   1_554  S
Al58         O63   1.786       .  S
O59          C66   1.265       .  A
O59         Al67   1.912       .  S
O60         C613   1.261       .  A
O60         Al67   1.910       .  S
O61         C595   1.257       .  A
O61         Al67   1.887       .  S
O62          C69   1.255       .  A
O63        Al611   1.778   1_554  S
O64          C65   1.261       .  A
C65         C389   1.465       .  S
C66         C373   1.479       .  S
Al67        O607   1.780       .  S
C69         C338   1.459       .  S
C69         O604   1.260   1_554  A
C70         C405   1.477       .  S
C70          O71   1.259       .  A
O71        Al602   1.910       .  S
C72          C73   1.402       .  A
C72          C77   1.400       .  A
C72         C325   1.475       .  S
C73          C74   1.403       .  A
C73          H78   1.084       .  S
C74          C75   1.405   1_455  A
C74         C357   1.486   1_455  S
C75          C76   1.406   1_655  A
C75          H79   1.084       .  S
C76          C77   1.403       .  A
C76         C370   1.487   1_455  S
C77          H80   1.084       .  S
C81          C82   1.402       .  A
C81          C86   1.403       .  A
C81         C306   1.472       .  S
C82          C83   1.399       .  A
C82          H87   1.084       .  S
C83          C84   1.402       .  A
C83         C274   1.471       .  S
C84          C85   1.399       .  A
C84          H88   1.085       .  S
C85          C86   1.398       .  A
C85         C290   1.475       .  S
C86          H89   1.084       .  S
O90         C105   1.262       .  A
O90        Al642   1.907       .  S
C91         C533   1.466       .  S
C91         O101   1.258   1_556  A
C91         O636   1.264       .  A
O92         C635   1.259       .  A
O92         Al94   1.902       .  S
O93          C95   1.265       .  A
O93         Al94   1.897       .  S
Al94        O102   1.892       .  S
Al94        O104   1.893       .  S
Al94        O647   1.781       .  S
C95         C293   1.483       .  S
C95         O108   1.265       .  A
O96         C106   1.260       .  A
O96         Al98   1.903   1_554  S
O97         C110   1.259       .  A
O97        Al107   1.883       .  S
Al98        O111   1.918   1_556  S
Al98        O634   1.895       .  S
Al98        O652   1.919       .  S
Al98        O103   1.779       .  S
O99         C106   1.260       .  A
O99        Al107   1.895       .  S
O100        C109   1.260   1_554  A
O100       Al107   1.906       .  S
O101       Al107   1.880       .  S
O102        C653   1.260       .  A
O103       Al107   1.775   1_556  S
O103       Al638   1.776       .  S
O104        C105   1.256       .  A
C105        C258   1.476       .  S
C106        C277   1.473       .  S
O108       Al642   1.917       .  S
C109        C226   1.474       .  S
C109        O646   1.261       .  A
C110        C245   1.472       .  S
C110        O111   1.266       .  A
C112        C113   1.404       .  A
C112        C117   1.403       .  A
C112        C434   1.477   1_455  S
C113        C114   1.400       .  A
C113        H118   1.083       .  S
C114        C115   1.401       .  A
C114        C261   1.481       .  S
C115        C116   1.397       .  A
C115        H119   1.085       .  S
C116        C117   1.399       .  A
C116        C242   1.468       .  S
C117        H120   1.083       .  S
C121        C122   1.404       .  A
C121        C670   1.402   1_554  A
C121        C229   1.475       .  S
C122        C123   1.400       .  A
C122        H127   1.083       .  S
C123        C124   1.400       .  A
C123        C210   1.473       .  S
C124        C669   1.399   1_554  A
C124        H128   1.085       .  S
C125        C126   1.403       .  A
C125        C668   1.404       .  A
C125        C194   1.483       .  S
C126        C665   1.402       .  A
C126        H129   1.083       .  S
O130        C145   1.257       .  A
O130       Al138   1.899       .  S
C131        C309   1.480       .  S
C131        O141   1.261       .  A
C131        O132   1.261       .  A
O132       Al134   1.914       .  S
O133        C135   1.260       .  A
O133       Al134   1.881       .  S
Al134       O142   1.879       .  S
Al134       O144   1.901       .  S
Al134       O143   1.779       .  S
C135        C178   1.472       .  S
C135        O148   1.269       .  A
O136        C146   1.258       .  A
O136       Al138   1.891       .  S
O137        C150   1.258       .  A
O137       Al147   1.880       .  S
Al138       O151   1.928       .  S
Al138       O148   1.928       .  S
Al138       O143   1.784       .  S
O139        C146   1.262       .  A
O139       Al147   1.912       .  S
O140        C149   1.265       .  A
O140       Al147   1.928       .  S
O141       Al147   1.904       .  S
O142        C149   1.257       .  A
O143       Al147   1.777       .  S
O144        C145   1.258       .  A
C145        C213   1.466       .  S
C146        C162   1.475       .  S
C149        C322   1.459       .  S
C150        C197   1.490       .  S
C150        O151   1.267       .  A
C152        C153   1.402       .  A
C152        C701   1.404   1_554  A
C152        C341   1.476       .  S
C153        C154   1.397       .  A
C153        H158   1.083       .  S
C154        C155   1.397       .  A
C154        C181   1.471       .  S
C155        C700   1.402   1_554  A
C155        H159   1.084       .  S
C156        C157   1.399       .  A
C156        C699   1.398       .  A
C156        C165   1.470       .  S
C157        C696   1.405       .  A
C157        H160   1.084       .  S
C161        C162   1.405       .  A
C161        C166   1.404       .  A
C161        H168   1.085       .  S
C162        C163   1.411       .  A
C163        C164   1.398       .  A
C163        C170   1.498       .  S
C164        C165   1.398       .  A
C164        H169   1.085       .  S
C165        C166   1.411       .  A
C166        C167   1.507       .  S
C167        H171   1.111       .  S
C167        H172   1.111       .  S
C167        H173   1.110       .  S
C170        H174   1.109       .  S
C170        H175   1.109       .  S
C170        H176   1.111       .  S
C177        C178   1.401       .  A
C177        C182   1.396       .  A
C177        H184   1.084       .  S
C178        C179   1.417       .  A
C179        C180   1.406       .  A
C179        C186   1.508       .  S
C180        C181   1.401       .  A
C180        H185   1.084       .  S
C181        C182   1.410       .  A
C182        C183   1.507       .  S
C183        H187   1.111       .  S
C183        H188   1.106       .  S
C183        H189   1.110       .  S
C186        H190   1.110       .  S
C186        H191   1.110       .  S
C186        H192   1.111       .  S
C193        C194   1.401       .  A
C193        C198   1.401       .  A
C193        H200   1.084       .  S
C194        C195   1.413       .  A
C195        C196   1.405       .  A
C195        C202   1.508       .  S
C196        C197   1.408       .  A
C196        H201   1.083       .  S
C197        C198   1.423       .  A
C198        C199   1.510       .  S
C199        H203   1.111       .  S
C199        H204   1.108       .  S
C199        H205   1.111       .  S
C202        H206   1.108       .  S
C202        H207   1.110       .  S
C202        H208   1.111       .  S
C209        C210   1.401       .  A
C209        C214   1.401       .  A
C209        H216   1.084       .  S
C210        C211   1.412       .  A
C211        C212   1.403       .  A
C211        C218   1.507       .  S
C212        C213   1.401       .  A
C212        H217   1.085       .  S
C213        C214   1.410       .  A
C214        C215   1.505       .  S
C215        H219   1.111       .  S
C215        H220   1.109       .  S
C215        H221   1.109       .  S
C218        H222   1.109       .  S
C218        H223   1.110       .  S
C218        H224   1.111       .  S
C225        C230   1.402       .  A
C225        C770   1.401       .  A
C225        H232   1.085       .  S
C226        C227   1.412       .  A
C226        C769   1.404   1_556  A
C227        C228   1.401       .  A
C227        C234   1.502       .  S
C228        C229   1.402   1_556  A
C228        H233   1.085       .  S
C229        C774   1.412       .  A
C230        C773   1.410       .  A
C230        C231   1.506       .  S
C231        H235   1.111       .  S
C231        H236   1.110       .  S
C231        H237   1.111       .  S
C234        H238   1.109       .  S
C234        H239   1.110       .  S
C234        H240   1.111       .  S
C241        C242   1.400       .  A
C241        C246   1.404       .  A
C241        H248   1.084       .  S
C242        C243   1.409       .  A
C243        C244   1.397       .  A
C243        C250   1.508       .  S
C244        C245   1.403       .  A
C244        H249   1.084       .  S
C245        C246   1.416       .  A
C246        C247   1.508       .  S
C247        H251   1.111       .  S
C247        H252   1.110       .  S
C247        H253   1.109       .  S
C250        H254   1.110       .  S
C250        H255   1.110       .  S
C250        H256   1.111       .  S
C257        C258   1.401       .  A
C257        C262   1.402       .  A
C257        H264   1.085       .  S
C258        C259   1.418       .  A
C259        C260   1.400       .  A
C259        C266   1.508       .  S
C260        C261   1.401       .  A
C260        H265   1.084       .  S
C261        C262   1.418       .  A
C262        C263   1.509       .  S
C263        H267   1.111       .  S
C263        H268   1.111       .  S
C263        H269   1.107       .  S
C266        H270   1.109       .  S
C266        H271   1.103       .  S
C266        H272   1.111       .  S
C273        C274   1.402       .  A
C273        C278   1.406       .  A
C273        H280   1.084       .  S
C274        C275   1.411       .  A
C275        C276   1.395       .  A
C275        C282   1.509       .  S
C276        C277   1.402       .  A
C276        H281   1.084       .  S
C277        C278   1.414       .  A
C278        C279   1.506       .  S
C279        H283   1.111       .  S
C279        H284   1.110       .  S
C279        H285   1.111       .  S
C282        H286   1.108       .  S
C282        H287   1.111       .  S
C282        H288   1.110       .  S
C289        C290   1.399       .  A
C289        C294   1.403       .  A
C289        H296   1.084       .  S
C290        C291   1.411       .  A
C291        C292   1.402       .  A
C291        C298   1.508       .  S
C292        C293   1.405       .  A
C292        H297   1.084       .  S
C293        C294   1.422       .  A
C294        C295   1.509       .  S
C295        H299   1.110       .  S
C295        H300   1.111       .  S
C295        H301   1.110       .  S
C298        H302   1.111       .  S
C298        H303   1.109       .  S
C298        H304   1.111       .  S
C305        C306   1.399       .  A
C305        C310   1.399   1_545  A
C305        H312   1.085       .  S
C306        C307   1.410   1_545  A
C307        C308   1.403       .  A
C307        C314   1.507       .  S
C308        C309   1.407       .  A
C308        H313   1.084       .  S
C309        C310   1.413       .  A
C310        C311   1.499       .  S
C311        H315   1.111       .  S
C311        H316   1.110       .  S
C311        H317   1.105       .  S
C314        H318   1.109   1_565  S
C314        H319   1.110   1_565  S
C314        H320   1.111       .  S
C321        C322   1.395       .  A
C321        C326   1.397       .  A
C321        H328   1.085       .  S
C322        C323   1.408       .  A
C323        C324   1.405       .  A
C323        C330   1.505       .  S
C324        C325   1.404       .  A
C324        H329   1.084       .  S
C325        C326   1.416       .  A
C326        C327   1.508       .  S
C327        H331   1.111       .  S
C327        H332   1.110       .  S
C327        H333   1.107       .  S
C330        H334   1.108       .  S
C330        H335   1.109       .  S
C330        H336   1.111       .  S
C337        C342   1.396       .  A
C337        C882   1.396       .  A
C337        H344   1.081       .  S
C338        C339   1.408       .  A
C338        C881   1.394       .  A
C339        C340   1.402       .  A
C339        C346   1.505   1_554  S
C340        C341   1.405       .  A
C340        H345   1.085   1_554  S
C341        C886   1.418       .  A
C342        C885   1.416       .  A
C342        C343   1.508       .  S
C343        H347   1.111       .  S
C343        H348   1.110       .  S
C343        H893   1.107       .  S
C346        H351   1.111       .  S
C346        H352   1.111       .  S
C346        H894   1.109       .  S
H349        C887   1.107       .  S
H350        C890   1.110       .  S
C353        C354   1.409       .  A
C353        C358   1.402       .  A
C353        H360   1.084       .  S
C354        C355   1.420       .  A
C355        C356   1.402   1_655  A
C355        C362   1.510       .  S
C356        C357   1.403   1_455  A
C356        H361   1.082       .  S
C357        C358   1.413       .  A
C358        C359   1.508       .  S
C359        H363   1.111       .  S
C359        H364   1.110       .  S
C359        H365   1.108       .  S
C362        H366   1.110       .  S
C362        H367   1.111       .  S
C362        H368   1.111   1_655  S
C369        C370   1.407   1_455  A
C369        C374   1.404   1_455  A
C369        H376   1.083       .  S
C370        C371   1.416       .  A
C371        C372   1.401       .  A
C371        C378   1.508       .  S
C372        C373   1.404       .  A
C372        H377   1.085       .  S
C373        C374   1.414       .  A
C374        C375   1.507       .  S
C375        H379   1.111   1_655  S
C375        H380   1.110   1_655  S
C375        H381   1.108       .  S
C378        H382   1.108       .  S
C378        H383   1.110       .  S
C378        H384   1.111       .  S
C385        C386   1.396   1_565  A
C385        C390   1.397       .  A
C385        H392   1.084       .  S
C386        C387   1.409   1_545  A
C387        C388   1.402       .  A
C387        C394   1.506   1_565  S
C388        C389   1.402       .  A
C388        H393   1.084       .  S
C389        C390   1.415       .  A
C390        C391   1.507       .  S
C391        H395   1.111       .  S
C391        H396   1.108       .  S
C391        H397   1.110       .  S
C394        H398   1.110       .  S
C394        H399   1.110       .  S
C394        H400   1.111       .  S
C401        C402   1.401   1_565  A
C401        C406   1.400       .  A
C401        H408   1.084       .  S
C402        C403   1.413       .  A
C403        C404   1.403   1_545  A
C403        C410   1.506       .  S
C404        C405   1.403       .  A
C404        H409   1.083       .  S
C405        C406   1.416       .  A
C406        C407   1.507       .  S
C407        H411   1.111       .  S
C407        H412   1.111       .  S
C407        H413   1.109       .  S
C410        H414   1.110       .  S
C410        H415   1.107       .  S
C410        H416   1.111       .  S
C417        C418   1.403   1_556  A
C417        C422   1.402       .  A
C417        H424   1.084       .  S
C418        C419   1.415       .  A
C419        C420   1.398       .  A
C419        C426   1.508       .  S
C420        C421   1.402   1_554  A
C420        H425   1.084       .  S
C421        C422   1.413       .  A
C422        C423   1.506       .  S
C423        H427   1.111       .  S
C423        H429   1.110       .  S
C423        H972   1.106       .  S
C426        H431   1.109       .  S
C426        H432   1.111       .  S
C426        H974   1.109       .  S
H428        C967   1.106       .  S
H430        C970   1.110       .  S
C433        C434   1.400       .  A
C433        C438   1.396       .  A
C433        H440   1.085       .  S
C434        C435   1.411       .  A
C435        C436   1.406       .  A
C435        C442   1.507       .  S
C436        C437   1.407       .  A
C436        H441   1.085       .  S
C437        C438   1.418       .  A
C438        C439   1.510       .  S
C439        H443   1.110       .  S
C439        H444   1.111       .  S
C439        H445   1.108       .  S
C442        H446   1.108       .  S
C442        H447   1.110       .  S
C442        H448   1.111       .  S
C449        C450   1.404       .  A
C449        C454   1.398       .  A
C449        H456   1.085       .  S
C450        C451   1.415       .  A
C451        C452   1.398       .  A
C451        C458   1.510       .  S
C452        C453   1.404       .  A
C452        H457   1.084       .  S
C453        C454   1.412       .  A
C454        C455   1.507       .  S
C455        H459   1.111       .  S
C455        H460   1.105       .  S
C455        H461   1.110       .  S
C458        H462   1.108       .  S
C458        H463   1.110       .  S
C458        H464   1.111       .  S
C465        C466   1.404       .  A
C465        C470   1.397       .  A
C465        H472   1.086       .  S
C466        C467   1.411       .  A
C467        C468   1.403       .  A
C467        C474   1.506       .  S
C468        C469   1.403       .  A
C468        H473   1.085       .  S
C469        C470   1.411       .  A
C470        C471   1.508       .  S
C471        H475   1.110       .  S
C471        H476   1.108       .  S
C471        H477   1.111       .  S
C474        H478   1.110       .  S
C474        H479   1.110       .  S
C474        H480   1.111       .  S
C481        C482   1.403       .  A
C481        C486   1.398       .  A
C481        H488   1.085       .  S
C482        C483   1.416       .  A
C483        C484   1.402       .  A
C483        C490   1.508       .  S
C484        C485   1.401       .  A
C484        H489   1.085       .  S
C485        C486   1.410       .  A
C486        C487   1.506       .  S
C487        H491   1.111       .  S
C487        H492   1.111       .  S
C487        H493   1.107       .  S
C490        H494   1.111       .  S
C490        H495   1.110       .  S
C490        H496   1.111       .  S
C497        C498   1.401       .  A
C497        C502   1.404       .  A
C497        H504   1.085       .  S
C498        C499   1.413       .  A
C499        C500   1.396       .  A
C499        C506   1.510       .  S
C500        C501   1.405       .  A
C500        H505   1.085       .  S
C501        C502   1.419       .  A
C502        C503   1.508       .  S
C503        H507   1.111       .  S
C503        H508   1.111       .  S
C503        H509   1.109       .  S
C506        H510   1.106       .  S
C506        H511   1.110       .  S
C506        H512   1.111       .  S
C513        C514   1.409       .  A
C513        C518   1.406       .  A
C513        H520   1.082       .  S
C514        C515   1.415       .  A
C515        C516   1.401       .  A
C515        C522   1.507       .  S
C516        C517   1.405       .  A
C516        H521   1.085       .  S
C517        C518   1.411       .  A
C518        C519   1.507       .  S
C519        H523   1.111       .  S
C519        H524   1.111       .  S
C519        H525   1.110       .  S
C522        H526   1.108       .  S
C522        H527   1.111       .  S
C522        H528   1.110       .  S
C529        C534   1.409       .  A
C529       C1074   1.405       .  A
C529        H536   1.084       .  S
C530        C531   1.412       .  A
C530       C1073   1.399   1_556  A
C531        C532   1.392       .  A
C531        C538   1.509       .  S
C532        C533   1.401       .  A
C532        H537   1.085       .  S
C533       C1078   1.415   1_556  A
C534       C1077   1.415       .  A
C534        C535   1.506       .  S
C535        H539   1.111       .  S
C535        H540   1.110       .  S
C535       H1085   1.110       .  S
C538        H543   1.110       .  S
C538        H544   1.111       .  S
C538       H1086   1.106       .  S
H541       C1079   1.109       .  S
H542       C1082   1.106       .  S
C545        C550   1.400       .  A
C545       C1074   1.479       .  S
C546        C547   1.398       .  A
C546        H551   1.085       .  S
C547        C548   1.406       .  A
C547       C1058   1.477       .  S
C548        H552   1.084       .  S
C549        C550   1.400       .  A
C549       C1042   1.478       .  S
C550        H553   1.085       .  S
O554        C569   1.261       .  A
O554       Al562   1.899       .  S
C555        C981   1.466       .  S
C555        O565   1.259       .  A
C555        O556   1.257       .  A
O556       Al558   1.890       .  S
O557        C559   1.258       .  A
O557       Al558   1.881       .  S
Al558       O566   1.880       .  S
Al558       O568   1.888       .  S
Al558       O567   1.775       .  S
C559       C1026   1.478       .  S
C559        O572   1.265       .  A
O560        C570   1.262       .  A
O560       Al562   1.900       .  S
O561        C574   1.258       .  A
O561       Al571   1.893       .  S
Al562       O575   1.919       .  S
Al562       O572   1.932       .  S
Al562       O567   1.784       .  S
O563        C570   1.261       .  A
O563       Al571   1.890       .  S
O564        C573   1.259       .  A
O564       Al571   1.901       .  S
O565       Al571   1.895       .  S
O566        C573   1.258       .  A
O567       Al571   1.779       .  S
O568        C569   1.259       .  A
C569       C1061   1.467       .  S
C570       C1010   1.470       .  S
C573        C994   1.473       .  S
C574       C1045   1.487       .  S
C574        O575   1.265       .  A
C576        C581   1.401       .  A
C576        C965   1.469       .  S
C577        C578   1.404       .  A
C577        H582   1.083       .  S
C578       C1029   1.480       .  S
C579        C580   1.398       .  A
C579        H583   1.085       .  S
C580        C581   1.395       .  A
C580       C1013   1.465       .  S
C581        H584   1.084       .  S
C585        C586   1.405       .  A
C585        C590   1.402       .  A
C585        C997   1.477       .  S
C586        C587   1.401       .  A
C586        H591   1.082       .  S
C587        C588   1.400       .  A
C587        C946   1.473       .  S
C588        C589   1.398       .  A
C588        H592   1.085   1_545  S
C589        C590   1.393       .  A
C589        C930   1.468   1_545  S
C590        H593   1.085       .  S
O594        C609   1.263       .  A
O594       Al602   1.900       .  S
C595        C962   1.467       .  S
C595        O596   1.258       .  A
O596       Al598   1.897       .  S
O597        C599   1.259       .  A
O597       Al598   1.890       .  S
Al598       O606   1.870       .  S
Al598       O608   1.899       .  S
Al598       O607   1.783       .  S
C599        C898   1.488       .  S
C599        O612   1.259       .  A
O600        C610   1.262       .  A
O601        C614   1.257       .  A
O601       Al611   1.884       .  S
Al602       O612   1.906       .  S
Al602       O607   1.786       .  S
O603        C610   1.263       .  A
O603       Al611   1.901       .  S
O604       Al611   1.904       .  S
O605       Al611   1.888       .  S
O606        C613   1.253       .  A
O608        C609   1.261       .  A
C609        C933   1.461       .  S
C610        C917   1.474       .  S
C613        C882   1.460       .  S
C614        C949   1.482       .  S
C614        O615   1.261       .  A
C616        C617   1.398       .  A
C616        C621   1.396       .  A
C616        C869   1.464       .  S
C617        C618   1.399       .  A
C617        H622   1.084       .  S
C618        C619   1.404   1_455  A
C618        C901   1.479   1_455  S
C619        C620   1.406   1_655  A
C619        H623   1.084       .  S
C620        C621   1.400       .  A
C620        C914   1.482   1_455  S
C621        H624   1.084       .  S
C625        C626   1.405       .  A
C625        C630   1.404       .  A
C625        C850   1.478       .  S
C626        C627   1.404       .  A
C626        H631   1.083       .  S
C627        C628   1.402       .  A
C627        C818   1.476       .  S
C628        C629   1.399       .  A
C628        H632   1.085       .  S
C629        C630   1.398       .  A
C629        C834   1.476       .  S
C630        H633   1.084       .  S
O634        C649   1.258       .  A
C635       C1077   1.479       .  S
C635        O645   1.257       .  A
O636       Al638   1.906       .  S
O637        C639   1.263       .  A
O637       Al638   1.895       .  S
Al638       O646   1.903       .  S
Al638       O648   1.897       .  S
C639        C837   1.494       .  S
C639        O652   1.264       .  A
O640        C650   1.259       .  A
O640       Al642   1.897       .  S
O641        C654   1.257       .  A
O641       Al651   1.891       .  S
Al642       O655   1.911       .  S
Al642       O647   1.786       .  S
O643        C650   1.261       .  A
O643       Al651   1.901       .  S
O644        C653   1.264       .  A
O644       Al651   1.920       .  S
O645       Al651   1.902       .  S
O647       Al651   1.783       .  S
O648        C649   1.260       .  A
C649        C802   1.458       .  S
C650        C821   1.467       .  S
C653        C770   1.466       .  S
C654        C789   1.491       .  S
C654        O655   1.263       .  A
C656        C657   1.402       .  A
C656        C661   1.403       .  A
C656        C978   1.472   1_455  S
C657        C658   1.395       .  A
C657        H662   1.085       .  S
C658        C659   1.400       .  A
C658        C805   1.472       .  S
C659        C660   1.399       .  A
C659        H663   1.085       .  S
C660        C661   1.401       .  A
C660        C786   1.478       .  S
C661        H664   1.083       .  S
C665        C666   1.402       .  A
C665        C773   1.471       .  S
C666        C667   1.398       .  A
C666        H671   1.084       .  S
C667        C668   1.401       .  A
C667        C754   1.474       .  S
C668        H672   1.084       .  S
C669        C670   1.399       .  A
C669        C738   1.475       .  S
C670        H673   1.084       .  S
O674        C689   1.259       .  A
O674       Al682   1.914       .  S
C675        C853   1.484       .  S
C675        O685   1.261       .  A
C675        O676   1.260       .  A
O676       Al678   1.917       .  S
O677        C679   1.262       .  A
O677       Al678   1.882       .  S
Al678       O686   1.877       .  S
Al678       O688   1.897       .  S
Al678       O687   1.780       .  S
C679        C722   1.471       .  S
C679        O692   1.269       .  A
O680        C690   1.260       .  A
O680       Al682   1.902       .  S
O681        C694   1.258       .  A
O681       Al691   1.882       .  S
Al682       O695   1.915       .  S
Al682       O692   1.920       .  S
Al682       O687   1.786       .  S
O683        C690   1.260       .  A
O683       Al691   1.902       .  S
O684        C693   1.264       .  A
O684       Al691   1.918       .  S
O685       Al691   1.909       .  S
O686        C693   1.258       .  A
O687       Al691   1.779       .  S
O688        C689   1.256       .  A
C689        C757   1.477       .  S
C690        C706   1.480       .  S
C693        C866   1.452       .  S
C694        C741   1.490       .  S
C694        O695   1.265       .  A
C696        C697   1.404       .  A
C696        C885   1.477       .  S
C697        C698   1.398       .  A
C697        H702   1.083       .  S
C698        C699   1.396       .  A
C698        C725   1.468       .  S
C699        H703   1.085       .  S
C700        C701   1.399       .  A
C700        C709   1.474       .  S
C701        H704   1.083       .  S
C705        C706   1.404       .  A
C705        C710   1.406       .  A
C705        H712   1.084       .  S
C706        C707   1.413       .  A
C707        C708   1.396       .  A
C707        C714   1.496       .  S
C708        C709   1.396       .  A
C708        H713   1.085       .  S
C709        C710   1.414       .  A
C710        C711   1.506       .  S
C711        H715   1.111       .  S
C711        H716   1.110       .  S
C711        H717   1.109       .  S
C714        H718   1.108       .  S
C714        H719   1.107       .  S
C714        H720   1.111       .  S
C721        C722   1.401       .  A
C721        C726   1.396       .  A
C721        H728   1.085       .  S
C722        C723   1.416       .  A
C723        C724   1.405       .  A
C723        C730   1.507       .  S
C724        C725   1.400       .  A
C724        H729   1.084       .  S
C725        C726   1.410       .  A
C726        C727   1.507       .  S
C727        H731   1.111       .  S
C727        H732   1.107       .  S
C727        H733   1.110       .  S
C730        H734   1.110       .  S
C730        H735   1.110       .  S
C730        H736   1.111       .  S
C737        C738   1.399       .  A
C737        C742   1.402       .  A
C737        H744   1.085       .  S
C738        C739   1.408       .  A
C739        C740   1.402       .  A
C739        C746   1.508       .  S
C740        C741   1.409       .  A
C740        H745   1.083       .  S
C741        C742   1.424       .  A
C742        C743   1.510       .  S
C743        H747   1.111       .  S
C743        H748   1.108       .  S
C743        H749   1.110       .  S
C746        H750   1.109       .  S
C746        H751   1.111       .  S
C746        H752   1.111       .  S
C753        C754   1.399       .  A
C753        C758   1.401       .  A
C753        H760   1.085       .  S
C754        C755   1.410       .  A
C755        C756   1.407       .  A
C755        C762   1.505       .  S
C756        C757   1.404       .  A
C756        H761   1.084       .  S
C757        C758   1.416       .  A
C758        C759   1.506       .  S
C759        H763   1.111       .  S
C759        H764   1.108       .  S
C759        H765   1.107       .  S
C762        H766   1.110       .  S
C762        H767   1.111       .  S
C762        H768   1.111       .  S
C769        C774   1.400       .  A
C769        H776   1.085       .  S
C770        C771   1.411       .  A
C771        C772   1.402       .  A
C771        C778   1.506       .  S
C772        C773   1.401       .  A
C772        H777   1.084       .  S
C774        C775   1.508       .  S
C775        H779   1.111       .  S
C775        H780   1.108       .  S
C775        H781   1.110       .  S
C778        H782   1.106       .  S
C778        H783   1.103       .  S
C778        H784   1.111       .  S
C785        C786   1.400       .  A
C785        C790   1.404       .  A
C785        H792   1.085       .  S
C786        C787   1.413       .  A
C787        C788   1.400       .  A
C787        C794   1.510       .  S
C788        C789   1.407       .  A
C788        H793   1.084       .  S
C789        C790   1.423       .  A
C790        C791   1.508       .  S
C791        H795   1.111       .  S
C791        H796   1.105       .  S
C791        H797   1.110       .  S
C794        H798   1.108       .  S
C794        H799   1.111       .  S
C794        H800   1.111       .  S
C801        C802   1.397       .  A
C801        C806   1.393       .  A
C801        H808   1.086       .  S
C802        C803   1.407       .  A
C803        C804   1.403       .  A
C803        C810   1.502       .  S
C804        C805   1.404       .  A
C804        H809   1.085       .  S
C805        C806   1.416       .  A
C806        C807   1.509       .  S
C807        H811   1.110       .  S
C807        H812   1.107       .  S
C807        H813   1.111       .  S
C810        H814   1.104       .  S
C810        H815   1.110       .  S
C810        H816   1.111       .  S
C817        C818   1.405       .  A
C817        C822   1.404       .  A
C817        H824   1.084       .  S
C818        C819   1.414       .  A
C819        C820   1.400       .  A
C819        C826   1.507       .  S
C820        C821   1.399       .  A
C820        H825   1.083       .  S
C821        C822   1.410       .  A
C822        C823   1.506       .  S
C823        H827   1.111       .  S
C823        H828   1.110       .  S
C823        H829   1.110       .  S
C826        H830   1.106       .  S
C826        H831   1.110       .  S
C826        H832   1.111       .  S
C833        C834   1.397       .  A
C833        C838   1.403       .  A
C833        H840   1.085       .  S
C834        C835   1.410       .  A
C835        C836   1.404       .  A
C835        C842   1.508       .  S
C836        C837   1.411       .  A
C836        H841   1.084       .  S
C837        C838   1.424       .  A
C838        C839   1.508       .  S
C839        H843   1.110       .  S
C839        H844   1.111       .  S
C839        H845   1.110       .  S
C842        H846   1.109       .  S
C842        H847   1.111       .  S
C842        H848   1.111       .  S
C849        C850   1.399       .  A
C849        C854   1.398   1_545  A
C849        H856   1.085       .  S
C850        C851   1.412   1_545  A
C851        C852   1.406       .  A
C851        C858   1.506       .  S
C852        C853   1.407       .  A
C852        H857   1.084       .  S
C853        C854   1.412       .  A
C854        C855   1.494       .  S
C855        H859   1.111       .  S
C855        H860   1.110       .  S
C855        H861   1.104       .  S
C858        H862   1.108   1_565  S
C858        H863   1.111   1_565  S
C858        H864   1.111       .  S
C865        C866   1.395       .  A
C865        C870   1.394       .  A
C865        H872   1.085       .  S
C866        C867   1.408       .  A
C867        C868   1.401       .  A
C867        C874   1.505       .  S
C868        C869   1.401       .  A
C868        H873   1.084       .  S
C869        C870   1.413       .  A
C870        C871   1.509       .  S
C871        H875   1.111       .  S
C871        H876   1.110       .  S
C871        H877   1.108       .  S
C874        H878   1.108       .  S
C874        H879   1.106       .  S
C874        H880   1.111       .  S
C881        C886   1.395       .  A
C881        H888   1.085       .  S
C882        C883   1.406       .  A
C883        C884   1.404       .  A
C883        C890   1.506       .  S
C884        C885   1.407       .  A
C884        H889   1.082       .  S
C886        C887   1.507       .  S
C887        H891   1.111       .  S
C887        H892   1.110       .  S
C890        H895   1.110       .  S
C890        H896   1.110       .  S
C897        C898   1.408       .  A
C897        C902   1.400       .  A
C897        H904   1.084       .  S
C898        C899   1.422       .  A
C899        C900   1.401       .  A
C899        C906   1.510       .  S
C900        C901   1.402       .  A
C900        H905   1.083   1_655  S
C901        C902   1.412       .  A
C902        C903   1.508       .  S
C903        H907   1.110       .  S
C903        H908   1.110       .  S
C903        H909   1.108       .  S
C906        H910   1.110       .  S
C906        H911   1.111       .  S
C906        H912   1.111   1_655  S
C913        C914   1.408   1_455  A
C913        C918   1.401   1_455  A
C913        H920   1.083       .  S
C914        C915   1.414       .  A
C915        C916   1.398       .  A
C915        C922   1.508       .  S
C916        C917   1.404       .  A
C916        H921   1.085       .  S
C917        C918   1.412       .  A
C918        C919   1.508       .  S
C919        H923   1.111   1_655  S
C919        H924   1.110   1_655  S
C919        H925   1.108       .  S
C922        H926   1.108       .  S
C922        H927   1.110       .  S
C922        H928   1.111       .  S
C929        C930   1.399       .  A
C929        C934   1.398       .  A
C929        H936   1.084       .  S
C930        C931   1.411       .  A
C931        C932   1.401       .  A
C931        C938   1.507       .  S
C932        C933   1.400       .  A
C932        H937   1.084       .  S
C933        C934   1.411       .  A
C934        C935   1.506       .  S
C935        H939   1.111       .  S
C935        H940   1.107       .  S
C935        H941   1.110       .  S
C938        H942   1.109       .  S
C938        H943   1.110   1_565  S
C938        H944   1.111       .  S
C945        C946   1.399   1_565  A
C945        C950   1.402       .  A
C945        H952   1.085       .  S
C946        C947   1.410   1_545  A
C947        C948   1.400       .  A
C947        C954   1.507   1_565  S
C948        C949   1.405       .  A
C948        H953   1.082       .  S
C949        C950   1.419       .  A
C950        C951   1.506       .  S
C951        H955   1.111       .  S
C951        H956   1.110       .  S
C951        H957   1.110       .  S
C954        H958   1.111   1_545  S
C954        H959   1.107       .  S
C954        H960   1.111   1_545  S
C961        C962   1.401       .  A
C961        C966   1.400       .  A
C961        H968   1.085       .  S
C962        C963   1.414       .  A
C963        C964   1.398       .  A
C963        C970   1.506       .  S
C964        C965   1.400       .  A
C964        H969   1.085       .  S
C965        C966   1.412       .  A
C966        C967   1.506       .  S
C967        H971   1.111       .  S
C967        H973   1.111       .  S
C970        H975   1.109       .  S
C970        H976   1.111       .  S
C977        C978   1.400       .  A
C977        C982   1.393       .  A
C977        H984   1.086       .  S
C978        C979   1.411       .  A
C979        C980   1.404       .  A
C979        C986   1.506       .  S
C980        C981   1.404       .  A
C980        H985   1.085       .  S
C981        C982   1.417       .  A
C982        C983   1.511       .  S
C983        H987   1.110       .  S
C983        H988   1.111       .  S
C983        H989   1.103       .  S
C986        H990   1.108       .  S
C986        H991   1.111       .  S
C986        H992   1.111       .  S
C993        C994   1.404       .  A
C993        C998   1.399       .  A
C993       H1000   1.085       .  S
C994        C995   1.417       .  A
C995        C996   1.397       .  A
C995       C1002   1.510       .  S
C996        C997   1.403       .  A
C996       H1001   1.085       .  S
C997        C998   1.414       .  A
C998        C999   1.507       .  S
C999       H1003   1.111       .  S
C999       H1004   1.106       .  S
C999       H1005   1.111       .  S
C1002      H1006   1.107       .  S
C1002      H1007   1.110       .  S
C1002      H1008   1.111       .  S
C1009      C1010   1.404       .  A
C1009      C1014   1.395       .  A
C1009      H1016   1.085       .  S
C1010      C1011   1.413       .  A
C1011      C1012   1.403       .  A
C1011      C1018   1.507       .  S
C1012      C1013   1.401       .  A
C1012      H1017   1.084       .  S
C1013      C1014   1.410       .  A
C1014      C1015   1.509       .  S
C1015      H1019   1.110       .  S
C1015      H1020   1.108       .  S
C1015      H1021   1.111       .  S
C1018      H1022   1.110       .  S
C1018      H1023   1.111       .  S
C1018      H1024   1.111       .  S
C1025      C1026   1.403       .  A
C1025      C1030   1.402       .  A
C1025      H1032   1.084       .  S
C1026      C1027   1.416       .  A
C1027      C1028   1.405       .  A
C1027      C1034   1.507       .  S
C1028      C1029   1.403       .  A
C1028      H1033   1.084       .  S
C1029      C1030   1.413       .  A
C1030      C1031   1.506       .  S
C1031      H1035   1.111       .  S
C1031      H1036   1.110       .  S
C1031      H1037   1.107       .  S
C1034      H1038   1.111       .  S
C1034      H1039   1.110       .  S
C1034      H1040   1.111       .  S
C1041      C1042   1.402       .  A
C1041      C1046   1.408       .  A
C1041      H1048   1.084       .  S
C1042      C1043   1.410       .  A
C1043      C1044   1.400       .  A
C1043      C1050   1.509       .  S
C1044      C1045   1.406       .  A
C1044      H1049   1.084       .  S
C1045      C1046   1.421       .  A
C1046      C1047   1.508       .  S
C1047      H1051   1.111       .  S
C1047      H1052   1.111       .  S
C1047      H1053   1.110       .  S
C1050      H1054   1.111       .  S
C1050      H1055   1.109       .  S
C1050      H1056   1.111       .  S
C1057      C1058   1.407       .  A
C1057      C1062   1.399       .  A
C1057      H1064   1.081       .  S
C1058      C1059   1.411       .  A
C1059      C1060   1.397       .  A
C1059      C1066   1.507       .  S
C1060      C1061   1.404       .  A
C1060      H1065   1.085       .  S
C1061      C1062   1.409       .  A
C1062      C1063   1.507       .  S
C1063      H1067   1.111       .  S
C1063      H1068   1.110       .  S
C1063      H1069   1.109       .  S
C1066      H1070   1.108       .  S
C1066      H1071   1.111       .  S
C1066      H1072   1.110       .  S
C1073      C1078   1.400       .  A
C1073      H1080   1.084       .  S
C1074      C1075   1.413       .  A
C1075      C1076   1.397       .  A
C1075      C1082   1.509       .  S
C1076      C1077   1.403       .  A
C1076      H1081   1.084       .  S
C1078      C1079   1.506       .  S
C1079      H1083   1.111       .  S
C1079      H1084   1.110       .  S
C1082      H1087   1.111       .  S
C1082      H1088   1.111       .  S
