geometry optimzed in LAMMPS
_audit_creation_date              2020-11-30 
_audit_creation_method            'lammps2cif' 
_symmetry_space_group_name_H-M    'P1' 
_symmetry_Int_Tables_number       1 
_symmetry_cell_setting            triclinic 
loop_ 
_symmetry_equiv_pos_as_xyz 
  x,y,z 
_cell_length_a                    44.80165567 
_cell_length_b                    34.850012257994315 
_cell_length_c                    39.11711747344738 
_cell_angle_alpha                 90.26399225436523 
_cell_angle_beta                  89.6982978534464 
_cell_angle_gamma                 90.00948959169165 
loop_ 
_atom_site_label 
_atom_site_type_symbol 
_atom_site_fract_x 
_atom_site_fract_y 
_atom_site_fract_z 
_atom_site_charge 
Zr1        Zr  0.00034289  0.07439645  0.97843597     2.17500
O2          O  0.50106147  0.13833189  0.00295369    -0.51000
O3          O  0.99565846  0.09078292  0.91915468    -0.74200
O4          O  0.04838005  0.10277657  0.96226484    -0.81000
O5          O  0.41749637  0.05910693  0.97869782    -0.82800
O6          O  0.08490009  0.05963129  0.97482354    -0.78400
O7          O  0.45298554  0.10508041  0.97079085    -0.90000
O8          O  0.99971182  0.03602299  0.88758516    -0.76000
O9          O  0.03223338  0.02823442  0.95212404    -0.85500
O10         O  0.46987915  0.02651850  0.95296356    -0.85200
O11         O  0.03130788  0.05010667  0.02336293    -0.71900
O12         O  0.47132036  0.04884700  0.02483754    -0.84000
Zr13       Zr  0.50170326  0.92846310  0.01773062     2.26400
Zr14       Zr  0.06184749  0.00201639  0.99664533     2.06300
Zr15       Zr  0.44087976  0.00068518  0.99847868     2.10000
Zr16       Zr  0.50172155  0.98044792  0.92703781     1.78800
O17         O  0.40275177  0.02149277  0.03910338    -0.92800
O18         O  0.04389279  0.97287389  0.88896178    -0.40700
O19         O  0.47190121  0.95302942  0.97198535    -0.77300
O20         O  0.03132584  0.95348874  0.97092026    -0.96000
O21         O  0.03342009  0.97607636  0.04235253    -0.89300
O22         O  0.47008199  0.97521936  0.04381886    -0.92100
C23         C  0.99681259  0.07261414  0.89068449     1.01600
C24         C  0.42588046  0.09298453  0.97030446     1.14600
C25         C  0.07585129  0.09187333  0.96314070     1.05300
O26         O  0.09792249  0.97923075  0.95444294    -0.94300
O27         O  0.08573620  0.94567425  0.01950630    -0.90000
O28         O  0.05046345  0.89983622  0.02892225    -0.83200
C29         C  0.07748456  0.91231349  0.02938086     1.12000
O30         O  0.50299637  0.08531083  0.09543058    -0.96300
Zr31       Zr  0.00248215  0.02249270  0.06892445     1.88900
O32         O  0.50514894  0.91243015  0.07744530    -0.72900
O33         O  0.09957359  0.02113665  0.03801832    -0.52200
O34         O  0.04726991  0.03274152  0.10279652    -0.96800
O35         O  0.45754079  0.03429362  0.10479903    -0.54100
O36         O  0.50215187  0.96740951  0.10887315    -0.73400
C37         C  0.50459927  0.93075092  0.10589695     0.98900
O38         O  0.50004035  0.86398207  0.99340131    -0.62200
O39         O  0.40463675  0.97890971  0.95643846    -0.57000
O40         O  0.45387508  0.89855995  0.03057980    -0.93700
O41         O  0.41763183  0.94242460  0.01901865    -0.92200
O42         O  0.45837479  0.96365460  0.89266680    -0.92500
O43         O  0.50350419  0.91731699  0.90005084    -0.91300
C44         C  0.42653872  0.90970722  0.02987117     1.17800
H45         H  0.45703904  0.03723183  0.93570913     0.33700
H46         H  0.04371867  0.93336854  0.96133349     0.44600
H47         H  0.45763787  0.96432562  0.06145967     0.38100
H48         H  0.04363035  0.07052274  0.03226423     0.34600
H49         H  0.03547620  0.97320685  0.86560391     0.26400
H50         H  0.11850725  0.02172134  0.02488082     0.32300
H51         H  0.06105388  0.01193743  0.09574152     0.38200
H52         H  0.45479740  0.98617719  0.87792880     0.32700
H53         H  0.38504593  0.98685416  0.96592522     0.31500
H54         H  0.38382750  0.01114117  0.02990155     0.33200
H55         H  0.44808170  0.00896409  0.10843892     0.32200
H56         H  0.00608511  0.90047249  0.91722599     0.36200
H57         H  0.48258295  0.86413631  0.97797676     0.28900
H58         H  0.00916191  0.15513902  0.98638658     0.33200
H59         H  0.00503459  0.08386717  0.11796511     0.36000
H60         H  0.40775395  0.99578612  0.93644367     0.28600
H61         H  0.01902628  0.86260805  0.97899005     0.41500
H62         H  0.11702422  0.97760832  0.96697854     0.31500
H63         H  0.05518881  0.99722340  0.89073835     0.39200
H64         H  0.44357868  0.04813765  0.08968336     0.31000
H65         H  0.09528143  0.04836535  0.04342824     0.31100
H66         H  0.01697848  0.13680814  0.02175438     0.31300
C67         C  0.49753885  0.21321204  0.66206442     0.45800
H68         H  0.49705320  0.18146726  0.66107409    -0.03300
C69         C  0.99667310  0.28872681  0.66325167     0.45800
H70         H  0.99691911  0.32056122  0.66396407    -0.03300
C71         C  0.02409626  0.23209413  0.64365571    -0.16900
C72         C  0.47003815  0.23102314  0.64518072    -0.16700
C73         C  0.99745745  0.23096969  0.69832076    -0.17100
C74         C  0.02390563  0.27162497  0.64464082    -0.17100
C75         C  0.46977858  0.27053762  0.64586194    -0.16600
C76         C  0.49774281  0.26928924  0.69970140    -0.16900
Zr77       Zr  0.49892471  0.56887842  0.02368797     2.17500
O78         O  0.99650747  0.63087805  0.99866021    -0.51000
O79         O  0.49646564  0.58328481  0.08376381    -0.74200
O80         O  0.44940476  0.59493026  0.03401287    -0.81000
O81         O  0.08455684  0.56077990  0.01987688    -0.82800
O82         O  0.41808362  0.54348512  0.03637587    -0.78400
O83         O  0.04687286  0.60113469  0.03564150    -0.90000
O84         O  0.50584969  0.52891384  0.11387579    -0.76000
O85         O  0.47227552  0.51887243  0.05177276    -0.85500
O86         O  0.03468039  0.52319445  0.04750313    -0.85200
O87         O  0.46721747  0.54103035  0.98070951    -0.71900
O88         O  0.02867437  0.54651335  0.97583504    -0.84000
Zr89       Zr  0.50589797  0.42518906  0.98059542     2.26400
Zr90       Zr  0.44219450  0.48923809  0.00930511     2.06300
Zr91       Zr  0.06288024  0.50135320  0.99959602     2.10000
Zr92       Zr  0.50804376  0.47529966  0.07310725     1.78800
O93         O  0.09680798  0.52360229  0.95509827    -0.92800
O94         O  0.46699386  0.45811727  0.11131910    -0.40700
O95         O  0.03613091  0.45017330  0.02651174    -0.77300
O96         O  0.47785253  0.44437052  0.03039531    -0.96000
O97         O  0.46942121  0.46852462  0.96020643    -0.89300
O98         O  0.03326211  0.47353257  0.95564118    -0.92100
C99         C  0.50043894  0.56508456  0.11168882     1.01600
C100        C  0.07471894  0.59224201  0.03276350     1.14600
C101        C  0.42418669  0.57909690  0.04065837     1.05300
O102        O  0.41374707  0.45881114  0.05497175    -0.94300
O103        O  0.42109888  0.43167314  0.98473231    -0.90000
O104        O  0.45906245  0.39432895  0.96455065    -0.83200
C105        C  0.43122035  0.40224622  0.96869255     1.12000
O106        O  0.99199893  0.58129359  0.91026163    -0.96300
Zr107      Zr  0.49548139  0.51849469  0.93231797     1.88900
O108        O  0.50842177  0.41113800  0.91993951    -0.72900
O109        O  0.39695852  0.50451750  0.97776043    -0.52200
O110        O  0.44900804  0.52297629  0.90039144    -0.96800
O111        O  0.03812726  0.53089187  0.89307298    -0.54100
O112        O  0.49644583  0.46547342  0.89098712    -0.73400
C113        C  0.50285066  0.42950853  0.89236525     0.98900
O114        O  0.00580295  0.35837918  0.00542316    -0.62200
O115        O  0.10259163  0.48230627  0.03831605    -0.57000
O116        O  0.05580040  0.39657863  0.97257602    -0.93700
O117        O  0.08869320  0.44617079  0.97754914    -0.92200
O118        O  0.05055087  0.46542745  0.11027397    -0.92500
O119        O  0.01560922  0.41107244  0.09956779    -0.91300
C120        C  0.08205923  0.41137335  0.97046257     1.17800
H121        H  0.04727850  0.53482980  0.06462370     0.33700
H122        H  0.46775243  0.42238919  0.03994478     0.44600
H123        H  0.04585902  0.46411776  0.93735793     0.38100
H124        H  0.45278534  0.55970763  0.97307847     0.34600
H125        H  0.45241980  0.47929715  0.10917682     0.26400
H126        H  0.38087826  0.50568679  0.99521567     0.32300
H127        H  0.43850512  0.49847927  0.90481425     0.38200
H128        H  0.05651204  0.49168893  0.11714875     0.32700
H129        H  0.11967764  0.49911150  0.03248344     0.31500
H130        H  0.11699417  0.51967636  0.96465685     0.33200
H131        H  0.04806512  0.50601389  0.88848734     0.32200
H132        H  0.50421598  0.39463467  0.08435785     0.36200
H133        H  0.02171991  0.35872673  0.02287970     0.28900
H134        H  0.49192036  0.65014591  0.01988810     0.33200
H135        H  0.48697855  0.57976067  0.88471294     0.36000
H136        H  0.09589656  0.49131848  0.06113366     0.28600
H137        H  0.48889583  0.35884177  0.01844715     0.41500
H138        H  0.39278962  0.45942420  0.04709576     0.31500
H139        H  0.45709195  0.43580982  0.10046064     0.39200
H140        H  0.05279699  0.54565378  0.90665730     0.31000
H141        H  0.39957736  0.53136923  0.97019538     0.31100
H142        H  0.48166900  0.63390263  0.98437157     0.31300
C143        C  0.49670189  0.78921251  0.33475559     0.45800
H144        H  0.49643271  0.82103064  0.33560019    -0.03300
C145        C  0.99869601  0.71516968  0.33373617     0.45800
H146        H  0.99910757  0.68330415  0.33383145    -0.03300
C147        C  0.02423652  0.77280952  0.35292140    -0.16900
C148        C  0.46916430  0.77102020  0.35141219    -0.16700
C149        C  0.99948414  0.77251871  0.29774533    -0.17100
C150        C  0.02456984  0.73340356  0.35364893    -0.17100
C151        C  0.46946136  0.73156187  0.35155964    -0.16600
C152        C  0.49861104  0.73242061  0.29846899    -0.16900
Zr153      Zr  0.24702596  0.06939361  0.52242825     2.17500
O154        O  0.24719221  0.13316145  0.49707843    -0.51000
O155        O  0.24372170  0.08575374  0.58225972    -0.74200
O156        O  0.19874403  0.09790020  0.53504216    -0.81000
O157        O  0.33127459  0.05773193  0.52184913    -0.82800
O158        O  0.16383634  0.05127466  0.52709720    -0.78400
O159        O  0.29441851  0.10007174  0.53604790    -0.90000
O160        O  0.24875917  0.03055727  0.61257994    -0.76000
O161        O  0.21640533  0.02173894  0.54788463    -0.85500
O162        O  0.27920773  0.02331027  0.54772893    -0.85200
O163        O  0.21715533  0.04382321  0.47668961    -0.71900
O164        O  0.27704244  0.04543198  0.47597068    -0.84000
Zr165      Zr  0.24889393  0.92416617  0.48161889     2.26400
Zr166      Zr  0.18746639  0.99483868  0.50312861     2.06300
Zr167      Zr  0.30860183  0.99836874  0.50194463     2.10000
Zr168      Zr  0.24850834  0.97604277  0.57289812     1.78800
O169        O  0.34595727  0.01771363  0.45997103    -0.92800
O170        O  0.20487793  0.96706367  0.60940979    -0.40700
O171        O  0.27844955  0.94940757  0.52753000    -0.77300
O172        O  0.21888269  0.94736356  0.52843974    -0.96000
O173        O  0.21661750  0.97023194  0.45702243    -0.89300
O174        O  0.27959680  0.97229649  0.45664868    -0.92100
C175        C  0.24579265  0.06716108  0.61029572     1.01600
C176        C  0.32197940  0.08987020  0.53406462     1.14600
C177        C  0.17190563  0.08500391  0.53633702     1.05300
O178        O  0.15316632  0.96909871  0.54575194    -0.94300
O179        O  0.16545337  0.93830257  0.47800912    -0.90000
O180        O  0.20174888  0.89489357  0.46480870    -0.83200
C181        C  0.17447603  0.90639488  0.46530324     1.12000
O182        O  0.24249176  0.08157387  0.40733206    -0.96300
Zr183      Zr  0.24724617  0.01736086  0.43122589     1.88900
O184        O  0.25402291  0.90817905  0.42182726    -0.72900
O185        O  0.14676796  0.01376746  0.46560101    -0.52200
O186        O  0.20345963  0.02267147  0.39480552    -0.96800
O187        O  0.29088455  0.03229138  0.39616227    -0.54100
O188        O  0.24990524  0.96309305  0.39091656    -0.73400
C189        C  0.25307101  0.92646853  0.39352179     0.98900
O190        O  0.24700705  0.86029761  0.50660264    -0.62200
O191        O  0.34519727  0.97839123  0.54408943    -0.57000
O192        O  0.29710904  0.89490739  0.47102231    -0.93700
O193        O  0.33270934  0.93988628  0.48243806    -0.92200
O194        O  0.29305967  0.96297602  0.60631003    -0.92500
O195        O  0.24960672  0.91389002  0.60099686    -0.91300
C196        C  0.32422023  0.90672996  0.47188981     1.17800
H197        H  0.29161994  0.03425836  0.56537356     0.33700
H198        H  0.20691076  0.92677811  0.53769669     0.44600
H199        H  0.29263379  0.96191969  0.43923007     0.38100
H200        H  0.20443395  0.06365729  0.46773283     0.34600
H201        H  0.21270413  0.96835829  0.63301202     0.26400
H202        H  0.12900514  0.01576426  0.48066263     0.32300
H203        H  0.19087468  0.00029271  0.40075187     0.38200
H204        H  0.29677998  0.98674275  0.61956695     0.32700
H205        H  0.36463284  0.98677475  0.53454887     0.31500
H206        H  0.36415024  0.00318914  0.46605835     0.33200
H207        H  0.30136906  0.00754291  0.39281718     0.32200
H208        H  0.25098095  0.89506417  0.58202603     0.36200
H209        H  0.26445253  0.85928922  0.52200701     0.28900
H210        H  0.24095947  0.15064644  0.51583475     0.33200
H211        H  0.24292971  0.07797950  0.38220542     0.36000
H212        H  0.34177889  0.99548126  0.56401396     0.28600
H213        H  0.22955993  0.86093889  0.52223626     0.41500
H214        H  0.13486398  0.98481526  0.54364818     0.31500
H215        H  0.19315667  0.99097162  0.60689918     0.39200
H216        H  0.30412944  0.04722532  0.41142785     0.31000
H217        H  0.15124920  0.04054330  0.45893949     0.31100
H218        H  0.23014149  0.13307228  0.48108441     0.31300
C219        C  0.25139441  0.71437732  0.16089481     0.45800
H220        H  0.25148099  0.68256743  0.15990126    -0.03300
C221        C  0.25060635  0.78883479  0.16136779     0.45800
H222        H  0.25081633  0.82059294  0.16126568    -0.03300
C223        C  0.27766107  0.73253882  0.14141698    -0.16900
C224        C  0.22322320  0.73145493  0.14476775    -0.16700
C225        C  0.25238667  0.73145224  0.19730694    -0.17100
C226        C  0.27754269  0.77189696  0.14223757    -0.17100
C227        C  0.22291746  0.77102069  0.14435772    -0.16600
C228        C  0.25185956  0.77115599  0.19753043    -0.16900
Zr229      Zr  0.24465672  0.57411721  0.47962861     2.17500
O230        O  0.24381882  0.63731538  0.50657532    -0.51000
O231        O  0.24335370  0.59061523  0.41968458    -0.74200
O232        O  0.29262443  0.60388175  0.46494482    -0.81000
O233        O  0.16217414  0.55386601  0.47256850    -0.82800
O234        O  0.32868998  0.55909764  0.47419049    -0.78400
O235        O  0.19577225  0.60290530  0.46900955    -0.90000
O236        O  0.25037545  0.53626256  0.38820563    -0.76000
O237        O  0.27827963  0.52894496  0.45511033    -0.85500
O238        O  0.21568260  0.52547860  0.45260103    -0.85200
O239        O  0.27397819  0.55023477  0.52639157    -0.71900
O240        O  0.21436726  0.54695289  0.52442260    -0.84000
Zr241      Zr  0.24774167  0.42812964  0.51843657     2.26400
Zr242      Zr  0.30670800  0.50359656  0.50094027     2.06300
Zr243      Zr  0.18589949  0.49774732  0.49666406     2.10000
Zr244      Zr  0.24939428  0.48134510  0.42764417     1.78800
O245        O  0.14649031  0.51736983  0.53625813    -0.92800
O246        O  0.29475778  0.47184367  0.39413910    -0.40700
O247        O  0.21896875  0.45171156  0.47123198    -0.77300
O248        O  0.27820783  0.45439898  0.47344774    -0.96000
O249        O  0.27707364  0.47629332  0.54505715    -0.89300
O250        O  0.21432194  0.47362061  0.54322496    -0.92100
C251        C  0.24669625  0.57281329  0.39114298     1.01600
C252        C  0.16953885  0.58845322  0.46524855     1.14600
C253        C  0.31980745  0.59182449  0.46352287     1.05300
O254        O  0.34490812  0.47973016  0.46171536    -0.94300
O255        O  0.33082891  0.44848080  0.52630941    -0.90000
O256        O  0.29633615  0.40096010  0.53253049    -0.83200
C257        C  0.32297349  0.41447926  0.53502642     1.12000
O258        O  0.24120665  0.58559517  0.59443661    -0.96300
Zr259      Zr  0.24379231  0.52102642  0.57026898     1.88900
O260        O  0.24994322  0.41133988  0.57806131    -0.72900
O261        O  0.34205828  0.53024606  0.54185580    -0.52200
O262        O  0.28640280  0.53440587  0.60690377    -0.96800
O263        O  0.19969707  0.53069799  0.60620644    -0.54100
O264        O  0.24592626  0.46607624  0.60975975    -0.73400
C265        C  0.24884066  0.42938356  0.60664547     0.98900
O266        O  0.25079579  0.36479628  0.49213045    -0.62200
O267        O  0.15190421  0.47226159  0.45383376    -0.57000
O268        O  0.19995028  0.39681625  0.53054718    -0.93700
O269        O  0.16301951  0.43889029  0.51667671    -0.92200
O270        O  0.20792103  0.47080303  0.38871022    -0.92500
O271        O  0.25068226  0.41820303  0.40077771    -0.91300
C272        C  0.17232504  0.40686516  0.52868361     1.17800
H273        H  0.20351866  0.53555904  0.43444556     0.33700
H274        H  0.29141020  0.43480737  0.46447679     0.44600
H275        H  0.20165542  0.46222142  0.56041829     0.38100
H276        H  0.28545909  0.57096656  0.53616377     0.34600
H277        H  0.28791614  0.47084797  0.37011945     0.26400
H278        H  0.36187667  0.52627081  0.53112020     0.32300
H279        H  0.30110635  0.51411677  0.60125642     0.38200
H280        H  0.21659802  0.47430318  0.36559634     0.32700
H281        H  0.13200557  0.48200866  0.46076263     0.31500
H282        H  0.14815668  0.54564509  0.53795663     0.33200
H283        H  0.18820396  0.50651365  0.60463420     0.32200
H284        H  0.25549966  0.40037997  0.41958398     0.36200
H285        H  0.23549381  0.36518921  0.47397217     0.28900
H286        H  0.25201423  0.65497007  0.48911922     0.33200
H287        H  0.24244842  0.58232259  0.61952694     0.36000
H288        H  0.15681527  0.48649851  0.43269538     0.28600
H289        H  0.27003891  0.36478436  0.47955131     0.41500
H290        H  0.36339004  0.49332091  0.46844225     0.31500
H291        H  0.30560565  0.49651937  0.39595593     0.39200
H292        H  0.18743687  0.54963765  0.59374538     0.31000
H293        H  0.33901408  0.55837951  0.54128307     0.31100
H294        H  0.25938991  0.63616707  0.52440111     0.31300
C295        C  0.25376259  0.28823854  0.83597109     0.45800
H296        H  0.25434407  0.31997724  0.83637484    -0.03300
C297        C  0.25421150  0.21366515  0.83548244     0.45800
H298        H  0.25412782  0.18181171  0.83520082    -0.03300
C299        C  0.28176661  0.27102102  0.85191612    -0.16900
C300        C  0.22748371  0.27036928  0.85572474    -0.16700
C301        C  0.25231768  0.27095021  0.79975912    -0.17100
C302        C  0.28190825  0.23160964  0.85236966    -0.17100
C303        C  0.22737540  0.23083808  0.85472521    -0.16600
C304        C  0.25275080  0.23132212  0.79953376    -0.16900
C305        C  0.24623797  0.38596195  0.68780074     0.30100
C306        C  0.23836381  0.38198025  0.72240870    -0.36300
C307        C  0.24527000  0.34656894  0.73747126     0.16100
C308        C  0.25925406  0.31716650  0.71993340     0.19900
C309        C  0.26703172  0.32104587  0.68532179    -0.34400
C310        C  0.25982379  0.35628706  0.67014780     0.16000
O311        O  0.24111976  0.41618490  0.66831301    -0.26400
C312        C  0.25129817  0.40553915  0.63766087     0.05800
C313        C  0.26319204  0.36856454  0.63740448    -0.31300
O314        O  0.26358328  0.28657512  0.73910262    -0.23100
C315        C  0.25185100  0.29626361  0.76927141    -0.03100
C316        C  0.24025221  0.33337580  0.76966267    -0.17500
H317        H  0.22729086  0.40471564  0.73650675     0.20500
H318        H  0.27762012  0.29802567  0.67109521     0.18800
H319        H  0.27261580  0.35283455  0.61598995     0.18800
H320        H  0.22938457  0.34844033  0.79053409     0.14600
C321        C  0.24380586  0.68572675  0.27756256     0.30100
C322        C  0.23611175  0.68268638  0.31228100    -0.36300
C323        C  0.24084494  0.64670929  0.32737098     0.16100
C324        C  0.25212147  0.61557040  0.30962309     0.21900
C325        C  0.25982596  0.61866129  0.27482326    -0.34400
C326        C  0.25535624  0.65483237  0.25980090     0.16000
O327        O  0.24139645  0.71673875  0.25845039    -0.26400
C328        C  0.25194198  0.70595811  0.22797980     0.05800
C329        C  0.26082922  0.66754407  0.22746619    -0.31300
O330        O  0.25527177  0.58489536  0.32919941    -0.23100
C331        C  0.24605313  0.59674319  0.35995857    -0.03100
C332        C  0.23678648  0.63490721  0.36014418    -0.17500
H333        H  0.22735595  0.70683048  0.32665855     0.20500
H334        H  0.26899850  0.59470487  0.26054706     0.18800
H335        H  0.27019560  0.65117535  0.20644321     0.18800
H336        H  0.22862514  0.65172437  0.38157117     0.14600
C337        C  0.25064537  0.88483246  0.31161235     0.30100
C338        C  0.24300108  0.88199545  0.27697134    -0.36300
C339        C  0.24865466  0.84648401  0.26118937     0.16100
C340        C  0.26132836  0.81593836  0.27802958     0.21900
C341        C  0.26887690  0.81865536  0.31273418    -0.34400
C342        C  0.26287267  0.85404447  0.32866263     0.16000
O343        O  0.24630737  0.91492062  0.33171226    -0.26400
C344        C  0.25564939  0.90312894  0.36213377     0.05800
C345        C  0.26620868  0.86550687  0.36169152    -0.31300
O346        O  0.26436041  0.78539396  0.25821986    -0.23100
C347        C  0.25300184  0.79624470  0.22839410    -0.03100
C348        C  0.24302344  0.83412282  0.22889056    -0.17500
H349        H  0.23288125  0.90561150  0.26340441     0.20500
H350        H  0.27829618  0.79468944  0.32648785     0.18800
H351        H  0.27460289  0.84881594  0.38284739     0.18800
H352        H  0.23252440  0.85025071  0.20868595     0.14600
C353        C  0.23668252  0.13673291  0.67412652     0.30100
C354        C  0.22742608  0.17208455  0.68775190    -0.36300
C355        C  0.23822696  0.18120988  0.72032687     0.16100
C356        C  0.25675369  0.15715810  0.73836914     0.21900
C357        C  0.26563697  0.12142006  0.72497483    -0.34400
C358        C  0.25480737  0.11224907  0.69232626     0.16000
O359        O  0.23068205  0.12366176  0.64329163    -0.26400
C360        C  0.24475720  0.09009593  0.64180446     0.05800
C361        C  0.25999992  0.08128738  0.67164804    -0.31300
O362        O  0.26451123  0.17184094  0.76815894    -0.23100
C363        C  0.25108359  0.20595965  0.76906143    -0.03100
C364        C  0.23397615  0.21294665  0.74016116    -0.17500
H365        H  0.21328040  0.19148384  0.67362422     0.20500
H366        H  0.28030372  0.10238928  0.73880446     0.18800
H367        H  0.27400029  0.05665370  0.67664991     0.18800
H368        H  0.21990091  0.23738149  0.73477572     0.14600
C369        C  0.11674969  0.65541506  0.43726711     0.30100
C370        C  0.10022400  0.68957139  0.43706807    -0.36300
C371        C  0.07868472  0.69264501  0.41129983     0.16100
C372        C  0.07390243  0.66447779  0.38705718     0.21900
C373        C  0.08977324  0.62984883  0.38786377    -0.34400
C374        C  0.11105174  0.62655118  0.41386299     0.16000
O375        O  0.13858709  0.64664956  0.45846260    -0.26400
C376        C  0.14643662  0.61144371  0.44874231     0.05800
C377        C  0.13001158  0.59750154  0.42134026    -0.31300
O378        O  0.05403065  0.67463197  0.36397265    -0.23100
C379        C  0.04604138  0.70990275  0.37347745    -0.03100
C380        C  0.05995096  0.72182970  0.40352505    -0.17500
H381        H  0.10418794  0.71240729  0.45533409     0.20500
H382        H  0.08615726  0.60730891  0.36921264     0.18800
H383        H  0.13213248  0.57002029  0.40853294     0.18800
H384        H  0.05708876  0.74835707  0.41760904     0.14600
C385        C  0.38424256  0.63027109  0.42611589     0.30100
C386        C  0.41430629  0.63036261  0.41560075    -0.36300
C387        C  0.42352821  0.66216064  0.39635325     0.16100
C388        C  0.40441908  0.69168139  0.38825170     0.21900
C389        C  0.37436145  0.69150238  0.39856928    -0.34400
C390        C  0.36512821  0.65976840  0.41775181     0.16000
O391        O  0.37087279  0.60330238  0.44398648    -0.26400
C392        C  0.34285461  0.61565550  0.44723952     0.05800
C393        C  0.33791667  0.65067065  0.43133680    -0.31300
O394        O  0.41780256  0.71911873  0.37108353    -0.23100
C395        C  0.44594330  0.70747683  0.36795796    -0.03100
C396        C  0.45076904  0.67181639  0.38296876    -0.17500
H397        H  0.42942885  0.60733281  0.42208588     0.20500
H398        H  0.35930591  0.71467709  0.39227450     0.18800
H399        H  0.31724382  0.66657314  0.42942960     0.18800
H400        H  0.47148228  0.65601370  0.38486310     0.14600
C401        C  0.36753064  0.84858815  0.41906631     0.30100
C402        C  0.37356325  0.82683201  0.38964997    -0.36300
C403        C  0.40362117  0.81794447  0.38377704     0.16100
C404        C  0.42616585  0.82918380  0.40557851     0.21900
C405        C  0.42019806  0.85171216  0.43460401    -0.34400
C406        C  0.39013827  0.86092710  0.44031609     0.16000
O407        O  0.34112849  0.86105153  0.42889705    -0.26400
C408        C  0.34690693  0.88189978  0.45661074     0.05800
C409        C  0.37702074  0.88299525  0.46491834    -0.31300
O410        O  0.45236328  0.81527672  0.39640969    -0.23100
C411        C  0.44641133  0.79488714  0.36847227    -0.03100
C412        C  0.41666191  0.79650380  0.35878142    -0.17500
H413        H  0.35604173  0.81741279  0.37260645     0.20500
H414        H  0.43770514  0.86109150  0.45167469     0.18800
H415        H  0.38772546  0.89899898  0.48522464     0.18800
H416        H  0.40599229  0.78218732  0.33748019     0.14600
C417        C  0.09037106  0.81427470  0.38290537     0.30100
C418        C  0.12081923  0.81485747  0.39102702    -0.36300
C419        C  0.12975966  0.84360396  0.41390676     0.16100
C420        C  0.11011464  0.87028495  0.42730324     0.21900
C421        C  0.07978152  0.87015097  0.41870909    -0.34400
C422        C  0.07076135  0.84105019  0.39625762     0.16000
O423        O  0.07678093  0.78774166  0.36474075    -0.26400
C424        C  0.04811011  0.79742226  0.36673373     0.05800
C425        C  0.04303434  0.83076632  0.38546129    -0.31300
O426        O  0.12318095  0.89457304  0.44819441    -0.23100
C427        C  0.15154129  0.88329539  0.44839175    -0.03100
C428        C  0.15701540  0.85161733  0.42753633    -0.17500
H429        H  0.13623445  0.79359946  0.38110109     0.20500
H430        H  0.06418799  0.89065786  0.42951253     0.18800
H431        H  0.02186422  0.84389844  0.39205330     0.18800
H432        H  0.17807727  0.83749464  0.42229672     0.14600
C433        C  0.17015616  0.30725947  0.90798079     0.30100
C434        C  0.14367309  0.30516404  0.92692818    -0.36300
C435        C  0.13227738  0.34015491  0.93852179     0.16100
C436        C  0.14644260  0.37470697  0.93260348     0.21900
C437        C  0.17308976  0.37674537  0.91371448    -0.34400
C438        C  0.18405094  0.34169908  0.90134300     0.16000
O439        O  0.18363767  0.27822367  0.89325705    -0.26400
C440        C  0.20623254  0.29382867  0.87623902     0.05800
C441        C  0.20771008  0.33353701  0.88057372    -0.31300
O442        O  0.13099131  0.40401640  0.94427368    -0.23100
C443        C  0.10656887  0.38799493  0.95741878    -0.03100
C444        C  0.10608239  0.34833733  0.95461426    -0.17500
H445        H  0.13220134  0.27825482  0.93119754     0.20500
H446        H  0.18383319  0.40380412  0.90798818     0.18800
H447        H  0.22349945  0.35375548  0.86997393     0.18800
H448        H  0.08858512  0.32867309  0.96220504     0.14600
C449        C  0.34697572  0.31496955  0.88243289     0.30100
C450        C  0.37791377  0.31942749  0.88656043    -0.36300
C451        C  0.38688331  0.34228796  0.91427667     0.16100
C452        C  0.36673653  0.36010095  0.93593211     0.21900
C453        C  0.33586297  0.35550077  0.93190608    -0.34400
C454        C  0.32691019  0.33221186  0.90455026     0.16000
O455        O  0.33371590  0.29290846  0.85966468    -0.26400
C456        C  0.30487755  0.29554601  0.86770586     0.05800
C457        C  0.29925016  0.32013169  0.89501457    -0.31300
O458        O  0.37985064  0.38190875  0.95892447    -0.23100
C459        C  0.40882260  0.37768396  0.95231824    -0.03100
C460        C  0.41459690  0.35308284  0.92494162    -0.17500
H461        H  0.39384963  0.30563423  0.86963168     0.20500
H462        H  0.31994048  0.36900208  0.94903403     0.18800
H463        H  0.27806597  0.32620356  0.90732781     0.18800
H464        H  0.43591971  0.34618685  0.91330193     0.14600
C465        C  0.13934122  0.63473878  0.06545801     0.30100
C466        C  0.17009266  0.63769023  0.07180299    -0.36300
C467        C  0.17852415  0.66465929  0.09666827     0.16100
C468        C  0.15805457  0.68676176  0.11437920     0.21900
C469        C  0.12730975  0.68368546  0.10814510    -0.34400
C470        C  0.11890787  0.65721876  0.08284860     0.16000
O471        O  0.12648438  0.61057677  0.04411600    -0.26400
C472        C  0.09742113  0.61787764  0.04753405     0.05800
C473        C  0.09140170  0.64688256  0.07115165    -0.31300
O474        O  0.17089350  0.71173166  0.13496132    -0.23100
C475        C  0.19996173  0.70635283  0.12975100    -0.03100
C476        C  0.20605630  0.67665955  0.10690231    -0.17500
H477        H  0.18631932  0.62048565  0.05802580     0.20500
H478        H  0.11112561  0.70125858  0.12160984     0.18800
H479        H  0.06987231  0.65706444  0.08000317     0.18800
H480        H  0.22761279  0.66708553  0.09759555     0.14600
C481        C  0.37180381  0.64852815  0.06422673     0.30100
C482        C  0.35591431  0.68310256  0.06237487    -0.36300
C483        C  0.33387708  0.68858883  0.08753097     0.16100
C484        C  0.32826432  0.66231716  0.11305032     0.21900
C485        C  0.34368908  0.62747694  0.11446494    -0.34400
C486        C  0.36527796  0.62164557  0.08901713     0.16000
O487        O  0.39371277  0.63749853  0.04379702    -0.26400
C488        C  0.40069230  0.60288629  0.05540985     0.05800
C489        C  0.38369331  0.59143948  0.08328438    -0.31300
O490        O  0.30768674  0.67408211  0.13484169    -0.23100
C491        C  0.29998317  0.70845260  0.12329101    -0.03100
C492        C  0.31491720  0.71835096  0.09320607    -0.17500
H493        H  0.36053292  0.70429735  0.04290793     0.20500
H494        H  0.33929199  0.60647860  0.13415791     0.18800
H495        H  0.38520016  0.56500736  0.09761016     0.18800
H496        H  0.31240229  0.74377491  0.07772397     0.14600
C497        C  0.00478392  0.65706373  0.23830760     0.30100
C498        C  0.01107917  0.61947388  0.22740160    -0.36300
C499        C  0.00322629  0.61057006  0.19365122     0.16100
C500        C  0.48928650  0.63617672  0.17353302     0.21900
C501        C  0.48017177  0.67230239  0.18550768    -0.34400
C502        C  0.48891226  0.68178985  0.21877251     0.16000
O503        O  0.01021575  0.67153763  0.26879817    -0.26400
C504        C  0.49890513  0.70701703  0.26811156     0.05800
C505        C  0.48416467  0.71416590  0.23758222    -0.31300
O506        O  0.48514555  0.62263864  0.14252007    -0.23100
C507        C  0.49827397  0.58842161  0.14288256    -0.03100
C508        C  0.00735215  0.57790941  0.17482899    -0.17500
H509        H  0.02163324  0.59877531  0.24395753     0.20500
H510        H  0.46769317  0.69196005  0.16970486     0.18800
H511        H  0.47107619  0.73896903  0.23056063     0.18800
H512        H  0.01773791  0.55134750  0.18265301     0.14600
C513        C  0.10749811  0.36518762  0.56202971     0.30100
C514        C  0.07671724  0.36221575  0.56848908    -0.36300
C515        C  0.06824534  0.33611970  0.59394095     0.16100
C516        C  0.08872225  0.31492176  0.61208708     0.21900
C517        C  0.11945175  0.31769268  0.60549006    -0.34400
C518        C  0.12788548  0.34326784  0.57964112     0.16000
O519        O  0.12042516  0.38893085  0.54041338    -0.26400
C520        C  0.14945920  0.38176455  0.54379821     0.05800
C521        C  0.15540946  0.35336790  0.56771244    -0.31300
O522        O  0.07592587  0.29116671  0.63370197    -0.23100
C523        C  0.04688198  0.29633243  0.62874813    -0.03100
C524        C  0.04071067  0.32461083  0.60485209    -0.17500
H525        H  0.06052398  0.37894309  0.55453579     0.20500
H526        H  0.13560997  0.30071928  0.61926751     0.18800
H527        H  0.17690672  0.34352423  0.57664082     0.18800
H528        H  0.01916682  0.33356463  0.59539629     0.14600
C529        C  0.40741494  0.30943368  0.60352957     0.30100
C530        C  0.37883257  0.30853028  0.58908852    -0.36300
C531        C  0.36919014  0.34266910  0.57397698     0.16100
C532        C  0.38667902  0.37524753  0.57287340     0.21900
C533        C  0.41531466  0.37606450  0.58738101    -0.34400
C534        C  0.42480901  0.34198512  0.60285912     0.16000
O535        O  0.42065913  0.28076176  0.61889176    -0.26400
C536        C  0.44694099  0.29463210  0.62851522     0.05800
C537        C  0.45069910  0.33296130  0.61928836    -0.31300
O538        O  0.37297790  0.40423870  0.55823209    -0.23100
C539        C  0.34631728  0.39018035  0.54997762    -0.03100
C540        C  0.34267627  0.35192727  0.55917018    -0.17500
H541        H  0.36500399  0.28306810  0.58989966     0.20500
H542        H  0.42904358  0.40161168  0.58697940     0.18800
H543        H  0.46982392  0.35135037  0.62329312     0.18800
H544        H  0.32315174  0.33394622  0.55614591     0.14600
C545        C  0.40541782  0.18700281  0.61287131     0.30100
C546        C  0.37463161  0.18238278  0.60806975    -0.36300
C547        C  0.36620042  0.15577410  0.58296845     0.16100
C548        C  0.38666886  0.13474938  0.56420432     0.21900
C549        C  0.41752530  0.13972370  0.56873043    -0.34400
C550        C  0.42596561  0.16670197  0.59361627     0.16000
O551        O  0.41810210  0.21094639  0.63446587    -0.26400
C552        C  0.44715673  0.20680308  0.62845333     0.05800
C553        C  0.45344769  0.17910769  0.60372300    -0.31300
O554        O  0.37379232  0.10984926  0.54352809    -0.23100
C555        C  0.34470987  0.11542206  0.54871342    -0.03100
C556        C  0.33866367  0.14379347  0.57291065    -0.17500
H557        H  0.35839179  0.19845458  0.62288135     0.20500
H558        H  0.43377800  0.12356128  0.55401835     0.18800
H559        H  0.47502457  0.17055811  0.59374018     0.18800
H560        H  0.31719103  0.15270227  0.58298900     0.14600
C561        C  0.10777098  0.12576093  0.57213974     0.30100
C562        C  0.07855409  0.12596351  0.58522217    -0.36300
C563        C  0.06931710  0.16023291  0.60087497     0.16100
C564        C  0.08752698  0.19195126  0.60333971     0.21900
C565        C  0.11675773  0.19174472  0.59042800    -0.34400
C566        C  0.12603051  0.15753601  0.57482770     0.16000
O567        O  0.12128839  0.09652801  0.55734852    -0.26400
C568        C  0.14853082  0.10975292  0.55055050     0.05800
C569        C  0.15278277  0.14757024  0.56080286    -0.31300
O570        O  0.07425908  0.22099464  0.61857914    -0.23100
C571        C  0.04711453  0.20811665  0.62613482    -0.03100
C572        C  0.04288476  0.17017144  0.61579756    -0.17500
H573        H  0.06413514  0.10111629  0.58348874     0.20500
H574        H  0.13125567  0.21648940  0.59250622     0.18800
H575        H  0.17284974  0.16476720  0.55901236     0.18800
H576        H  0.02319489  0.15245955  0.61829286     0.14600
C577        C  0.49312349  0.34177940  0.76251141     0.30100
C578        C  0.48423740  0.37730776  0.77633180    -0.36300
C579        C  0.49467191  0.38580892  0.80929642     0.16100
C580        C  0.01119291  0.35969277  0.82808582     0.21900
C581        C  0.02074589  0.32508358  0.81328404    -0.34400
C582        C  0.01105519  0.31794058  0.77987399     0.16000
O583        O  0.48564700  0.32782653  0.73234231    -0.26400
C584        C  0.49925700  0.29387850  0.73078516     0.05800
C585        C  0.01576577  0.28724291  0.75895769    -0.31300
O586        O  0.01669366  0.37124801  0.85952486    -0.23100
C587        C  0.50401012  0.40700271  0.86042368    -0.03100
C588        C  0.48943154  0.41653893  0.83028443    -0.17500
H589        H  0.46987662  0.39672870  0.76251863     0.20500
H590        H  0.03436909  0.30479886  0.82709786     0.18800
H591        H  0.02962848  0.26248970  0.76390668     0.18800
H592        H  0.47586977  0.44154654  0.82518496     0.14600
C593        C  0.36245059  0.13276985  0.93356883     0.30100
C594        C  0.33399557  0.13135490  0.91886064    -0.36300
C595        C  0.32555189  0.16373431  0.90025512     0.16100
C596        C  0.34370924  0.19539312  0.89684963     0.21900
C597        C  0.37222087  0.19682704  0.91138715    -0.34400
C598        C  0.38083281  0.16426522  0.92968551     0.16000
O599        O  0.37546877  0.10471374  0.95012887    -0.26400
C600        C  0.40259087  0.11819082  0.95685831     0.05800
C601        C  0.40722837  0.15524714  0.94483395    -0.31300
O602        O  0.33113061  0.22269505  0.87903239    -0.23100
C603        C  0.30460229  0.20859251  0.87061462    -0.03100
C604        C  0.30000955  0.17164507  0.88293577    -0.17500
H605        H  0.31968692  0.10647935  0.92126953     0.20500
H606        H  0.38674852  0.22140680  0.90827592     0.18800
H607        H  0.42752531  0.17209388  0.94543119     0.18800
H608        H  0.28051304  0.15358855  0.88048410     0.14600
C609        C  0.16147146  0.18846968  0.88622287     0.30100
C610        C  0.13059848  0.18571855  0.89213614    -0.36300
C611        C  0.12150314  0.15810751  0.91598835     0.16100
C612        C  0.14144287  0.13456682  0.93258802     0.21900
C613        C  0.17235981  0.13770856  0.92705473    -0.34400
C614        C  0.18146450  0.16553311  0.90336727     0.16000
O615        O  0.17482771  0.21299822  0.86567443    -0.26400
C616        C  0.20381299  0.20637907  0.87020543     0.05800
C617        C  0.20926973  0.17666088  0.89294700    -0.31300
O618        O  0.12798919  0.10922653  0.95225317    -0.23100
C619        C  0.09905579  0.11687653  0.94856921    -0.03100
C620        C  0.09367524  0.14723016  0.92646720    -0.17500
H621        H  0.11477993  0.20384836  0.87902877     0.20500
H622        H  0.18817914  0.11955131  0.94013448     0.18800
H623        H  0.23055771  0.16615471  0.90181368     0.18800
H624        H  0.07238456  0.15823350  0.91797696     0.14600
C625        C  0.98935361  0.18472583  0.77788302     0.30100
C626        C  0.98162718  0.18126698  0.81248697    -0.36300
C627        C  0.98771491  0.14568541  0.82749137     0.16100
C628        C  0.50156211  0.11454168  0.81018782     0.21900
C629        C  0.50906189  0.11797450  0.77550894    -0.34400
C630        C  0.50309592  0.15366143  0.76060262     0.16000
O631        O  0.98576260  0.21546490  0.75879537    -0.26400
C632        C  0.99705453  0.20530234  0.72855492     0.05800
C633        C  0.50803026  0.16644727  0.72831645    -0.31300
O634        O  0.50572737  0.08402917  0.82946274    -0.23100
C635        C  0.99465725  0.09616127  0.85976122    -0.03100
C636        C  0.98387403  0.13360921  0.86013009    -0.17500
H637        H  0.97180345  0.20477684  0.82679734     0.20500
H638        H  0.51908036  0.09459056  0.76122361     0.18800
H639        H  0.51818429  0.15077107  0.70734495     0.18800
H640        H  0.97499040  0.14979605  0.88157814     0.14600
C641        C  0.34336969  0.81277863  0.10925943     0.30100
C642        C  0.37368802  0.81354187  0.09994962    -0.36300
C643        C  0.38219329  0.84279049  0.07738199     0.16100
C644        C  0.36224601  0.86953943  0.06515305     0.21900
C645        C  0.33203134  0.86881533  0.07451673    -0.34400
C646        C  0.32350453  0.83949369  0.09686582     0.16000
O647        O  0.33015905  0.78659007  0.12824487    -0.26400
C648        C  0.30142063  0.79636738  0.12762396     0.05800
C649        C  0.29608433  0.82950436  0.10901946    -0.31300
O650        O  0.37507199  0.89526744  0.04546968    -0.23100
C651        C  0.40360986  0.88486478  0.04482274    -0.03100
C652        C  0.40940402  0.85225846  0.06411951    -0.17500
H653        H  0.38942146  0.79253610  0.10928853     0.20500
H654        H  0.31623947  0.88956377  0.06486903     0.18800
H655        H  0.27492026  0.84282554  0.10334476     0.18800
H656        H  0.43072344  0.83883699  0.06911159     0.14600
C657        C  0.16031902  0.80950356  0.10210373     0.30100
C658        C  0.13157016  0.80870328  0.08816557    -0.36300
C659        C  0.12276042  0.84175665  0.07073306     0.16100
C660        C  0.14107120  0.87335042  0.06716085     0.21900
C661        C  0.16978405  0.87424602  0.08142346    -0.34400
C662        C  0.17850017  0.84117020  0.09907666     0.16000
O663        O  0.17316577  0.78137708  0.11871150    -0.26400
C664        C  0.19998463  0.79478097  0.12678920     0.05800
C665        C  0.20439855  0.83226671  0.11542438    -0.31300
O666        O  0.12792477  0.90155215  0.05078019    -0.23100
C667        C  0.10082785  0.88790959  0.04391851    -0.03100
C668        C  0.09635706  0.85077213  0.05567992    -0.17500
H669        H  0.11707104  0.78403686  0.09083436     0.20500
H670        H  0.18418506  0.89905053  0.07912507     0.18800
H671        H  0.22395902  0.85016461  0.11789770     0.18800
H672        H  0.07624967  0.83359798  0.05452414     0.14600
C673        C  0.51147621  0.81919886  0.21972796     0.30100
C674        C  0.52127089  0.82332295  0.18574813    -0.36300
C675        C  0.51503152  0.85872604  0.17023718     0.16100
C676        C  0.99965702  0.88805149  0.18609384     0.21900
C677        C  0.98856053  0.88311905  0.21940510    -0.34400
C678        C  0.99561590  0.84820229  0.23520430     0.16000
O679        O  0.51394462  0.78815643  0.23888105    -0.26400
C680        C  0.00116410  0.79810581  0.26748550     0.05800
C681        C  0.98797896  0.83429255  0.26646477    -0.31300
O682        O  0.99478212  0.91779381  0.16604657    -0.23100
C683        C  0.00827593  0.90820030  0.13685945    -0.03100
C684        C  0.51941343  0.87082170  0.13756524    -0.17500
H685        H  0.53225822  0.80020938  0.17205460     0.20500
H686        H  0.97498355  0.90473527  0.23193728     0.18800
H687        H  0.97438399  0.84823788  0.28580389     0.18800
H688        H  0.52943355  0.85500834  0.11655663     0.14600
Zr689      Zr  0.50101815  0.07380885  0.97879464     2.17500
O690        O  0.00105976  0.13805937  0.00434920    -0.51000
O691        O  0.49765841  0.08957138  0.91932853    -0.74200
O692        O  0.54902970  0.10270270  0.96343882    -0.81000
O693        O  0.91641763  0.05915541  0.97983962    -0.82800
O694        O  0.58524378  0.05864203  0.97428606    -0.78400
O695        O  0.95184192  0.10492875  0.97039042    -0.90000
O696        O  0.50009305  0.03480125  0.88751495    -0.76000
O697        O  0.53266002  0.02751018  0.95258815    -0.85500
O698        O  0.96910410  0.02688321  0.95335401    -0.85200
O699        O  0.53127693  0.04944113  0.02434488    -0.71900
O700        O  0.97139730  0.04920940  0.02503383    -0.84000
Zr701      Zr  0.00203087  0.92886025  0.01763567     2.26400
Zr702      Zr  0.56198470  0.00153869  0.99730340     2.06300
Zr703      Zr  0.94068967  0.00088822  0.99933636     2.10000
Zr704      Zr  0.00101070  0.98136358  0.92688650     1.78800
O705        O  0.90445807  0.02029561  0.04275358    -0.92800
O706        O  0.54600982  0.97268680  0.89125002    -0.40700
O707        O  0.97173679  0.95349301  0.97227189    -0.77300
O708        O  0.53164558  0.95285111  0.97147656    -0.96000
O709        O  0.53287180  0.97579262  0.04268955    -0.89300
O710        O  0.97083573  0.97588027  0.04400287    -0.92100
C711        C  0.49813974  0.07147501  0.89082106     1.01600
C712        C  0.92468036  0.09285997  0.97058444     1.14600
C713        C  0.57637431  0.09129850  0.96333387     1.05300
O714        O  0.59670490  0.97797669  0.95389390    -0.94300
O715        O  0.58507180  0.94545675  0.02194031    -0.90000
O716        O  0.54981053  0.89915886  0.02973078    -0.83200
C717        C  0.57669293  0.91193527  0.03137770     1.12000
O718        O  0.00508680  0.08716389  0.09283079    -0.96300
Zr719      Zr  0.50142997  0.02170742  0.06928462     1.88900
O720        O  0.00659028  0.91283769  0.07724153    -0.72900
O721        O  0.60113617  0.02190091  0.03641964    -0.52200
O722        O  0.54462210  0.02965660  0.10615542    -0.96800
O723        O  0.96050207  0.03462138  0.10737964    -0.54100
O724        O  0.00396404  0.96806243  0.10845727    -0.73400
C725        C  0.00624331  0.93134923  0.10560156     0.98900
O726        O  0.00043186  0.86472796  0.99265446    -0.62200
O727        O  0.90403974  0.97871405  0.95783861    -0.57000
O728        O  0.95440472  0.89878679  0.03183623    -0.93700
O729        O  0.91796727  0.94251510  0.02062250    -0.92200
O730        O  0.95675744  0.96707559  0.89328009    -0.92500
O731        O  0.00267329  0.91902291  0.89856510    -0.91300
C732        C  0.92702026  0.90988304  0.03154041     1.17800
H733        H  0.95603310  0.03750417  0.93630283     0.33700
H734        H  0.54415283  0.93268278  0.96218601     0.44600
H735        H  0.95867925  0.96508576  0.06195456     0.38100
H736        H  0.54352623  0.06978193  0.03354249     0.34600
H737        H  0.53857784  0.97429067  0.86751002     0.26400
H738        H  0.61932061  0.02413262  0.02208538     0.32300
H739        H  0.56149423  0.01870057  0.09292096     0.38200
H740        H  0.94925739  0.99233001  0.88566606     0.32700
H741        H  0.88450293  0.98209623  0.96941154     0.31500
H742        H  0.88569218  0.00722372  0.03624381     0.33200
H743        H  0.95126740  0.00921278  0.11130518     0.32200
H744        H  0.51623562  0.90160802  0.91513907     0.36200
H745        H  0.98436854  0.86601663  0.97540515     0.28900
H746        H  0.50448439  0.15541654  0.98314344     0.33200
H747        H  0.50275934  0.08086173  0.12042650     0.36000
H748        H  0.90419167  0.99827594  0.93956141     0.28600
H749        H  0.51747139  0.86266937  0.97778426     0.41500
H750        H  0.61631963  0.98862808  0.96060309     0.31500
H751        H  0.55753174  0.99666088  0.89455558     0.39200
H752        H  0.94581874  0.04859510  0.09327889     0.31000
H753        H  0.59605897  0.04865087  0.04279640     0.31100
H754        H  0.51969207  0.13995409  0.01635906     0.31300
C755        C  0.99704315  0.21419582  0.66186984     0.45800
H756        H  0.99658607  0.18243920  0.66107768    -0.03300
C757        C  0.49711569  0.28773962  0.66407263     0.45800
H758        H  0.49738140  0.31957261  0.66499178    -0.03300
C759        C  0.52455415  0.23131830  0.64388487    -0.16900
C760        C  0.96952578  0.23177772  0.64496645    -0.16700
C761        C  0.49794287  0.22971528  0.69869313    -0.17100
C762        C  0.52434442  0.27078121  0.64543234    -0.17100
C763        C  0.96930630  0.27124831  0.64530666    -0.16600
C764        C  0.99730698  0.27061407  0.69904075    -0.16900
Zr765      Zr  0.99985997  0.56743343  0.02415842     2.17500
O766        O  0.49853558  0.63364153  0.00061044    -0.51000
O767        O  0.99747220  0.58266602  0.08374731    -0.74200
O768        O  0.95053943  0.59304925  0.03744613    -0.81000
O769        O  0.58334804  0.56473435  0.01647403    -0.82800
O770        O  0.91832736  0.54239522  0.03671888    -0.78400
O771        O  0.54554315  0.60274686  0.03601477    -0.90000
O772        O  0.00335832  0.52770730  0.11426857    -0.76000
O773        O  0.97229639  0.51761319  0.05119018    -0.85500
O774        O  0.53467093  0.52522020  0.04581887    -0.85200
O775        O  0.96877316  0.54023227  0.98054409    -0.71900
O776        O  0.52684800  0.54861195  0.97444395    -0.84000
Zr777      Zr  0.00602911  0.42294589  0.98186769     2.26400
Zr778      Zr  0.94243822  0.48888158  0.00807565     2.06300
Zr779      Zr  0.56236791  0.50431031  0.99712039     2.10000
Zr780      Zr  0.00695765  0.47364733  0.07398182     1.78800
O781        O  0.59484010  0.52733145  0.95147823    -0.92800
O782        O  0.96392148  0.45613074  0.10886051    -0.40700
O783        O  0.53650102  0.45273177  0.02463864    -0.77300
O784        O  0.97702964  0.44331807  0.03068135    -0.96000
O785        O  0.97072537  0.46712064  0.96026285    -0.89300
O786        O  0.53221913  0.47612193  0.95378415    -0.92100
C787        C  0.99945971  0.56420636  0.11177097     1.01600
C788        C  0.57339200  0.59501396  0.03139556     1.14600
C789        C  0.92493416  0.57755602  0.04289124     1.05300
O790        O  0.90947398  0.45959879  0.05021655    -0.94300
O791        O  0.92178053  0.43111915  0.98275119    -0.90000
O792        O  0.95947832  0.39164263  0.96531796    -0.83200
C793        C  0.93171646  0.40071929  0.96796117     1.12000
O794        O  0.48674816  0.58264927  0.90991509    -0.96300
Zr795      Zr  0.99773262  0.51678175  0.93315143     1.88900
O796        O  0.00850975  0.40888885  0.92124302    -0.72900
O797        O  0.90128527  0.50930501  0.97187582    -0.52200
O798        O  0.95111628  0.52280616  0.90186996    -0.96800
O799        O  0.53530346  0.53717168  0.89306340    -0.54100
O800        O  0.99692413  0.46348186  0.89244469    -0.73400
C801        C  0.00279954  0.42740963  0.89378605     0.98900
O802        O  0.50728062  0.36079117  0.00440319    -0.62200
O803        O  0.60320678  0.48902375  0.03566496    -0.57000
O804        O  0.55535147  0.39899576  0.97015995    -0.93700
O805        O  0.58839717  0.44835828  0.97569559    -0.92200
O806        O  0.55383463  0.46766678  0.10571903    -0.92500
O807        O  0.51514381  0.41276296  0.09930338    -0.91300
C808        C  0.58164451  0.41359929  0.96818801     1.17800
H809        H  0.54746430  0.53692111  0.06270353     0.33700
H810        H  0.96637165  0.42175547  0.04026091     0.44600
H811        H  0.54467821  0.46688853  0.93531589     0.38100
H812        H  0.95488340  0.55935894  0.97258771     0.34600
H813        H  0.97128807  0.45707899  0.13266404     0.26400
H814        H  0.88310206  0.50488121  0.98580269     0.32300
H815        H  0.93779736  0.50310084  0.91186970     0.38200
H816        H  0.55865552  0.49361362  0.11449141     0.32700
H817        H  0.62082401  0.50227844  0.02590644     0.31500
H818        H  0.61468899  0.53014788  0.96221550     0.33200
H819        H  0.55001848  0.51602098  0.89374509     0.32200
H820        H  0.00898062  0.39241315  0.08202749     0.36200
H821        H  0.52362318  0.36168524  0.02133545     0.28900
H822        H  0.99148374  0.64827041  0.01793882     0.33200
H823        H  0.99240338  0.57816023  0.88508821     0.36000
H824        H  0.59866056  0.50331229  0.05700402     0.28600
H825        H  0.98704230  0.35678357  0.01884609     0.41500
H826        H  0.88916987  0.46283266  0.04078169     0.31500
H827        H  0.95021954  0.47833337  0.10720002     0.39200
H828        H  0.54542468  0.55888699  0.90458961     0.31000
H829        H  0.90297143  0.53757051  0.97040372     0.31100
H830        H  0.97819708  0.63003334  0.98461111     0.31300
C831        C  0.99760605  0.78975968  0.33386203     0.45800
H832        H  0.99730069  0.82161102  0.33455105    -0.03300
C833        C  0.49762274  0.71463055  0.33456862     0.45800
H834        H  0.49800772  0.68276316  0.33454273    -0.03300
C835        C  0.52364193  0.77213847  0.35325271    -0.16900
C836        C  0.96991357  0.77154380  0.34998934    -0.16700
C837        C  0.49816382  0.77209232  0.29850607    -0.17100
C838        C  0.52388088  0.73271644  0.35389991    -0.17100
C839        C  0.97033785  0.73208115  0.35022290    -0.16600
C840        C  0.00003126  0.73285754  0.29758920    -0.16900
Zr841      Zr  0.74770219  0.06946669  0.52137032     2.17500
O842        O  0.74918401  0.13300358  0.49575785    -0.51000
O843        O  0.74420578  0.08551602  0.58116370    -0.74200
O844        O  0.69934082  0.09915590  0.53242007    -0.81000
O845        O  0.83217753  0.05713981  0.52164451    -0.82800
O846        O  0.66457151  0.05209719  0.52574531    -0.78400
O847        O  0.79520703  0.09968048  0.53494116    -0.90000
O848        O  0.74709173  0.03009880  0.61156270    -0.76000
O849        O  0.71633488  0.02226682  0.54643617    -0.85500
O850        O  0.77915860  0.02302399  0.54735014    -0.85200
O851        O  0.71862594  0.04483375  0.47471152    -0.71900
O852        O  0.77842867  0.04499993  0.47576951    -0.84000
Zr853      Zr  0.74946764  0.92491904  0.47973097     2.26400
Zr854      Zr  0.68826436  0.99636084  0.50055770     2.06300
Zr855      Zr  0.80933123  0.99773613  0.50238402     2.10000
Zr856      Zr  0.74777940  0.97586545  0.57164609     1.78800
O857        O  0.84854472  0.01751482  0.46288559    -0.92800
O858        O  0.70413515  0.96510655  0.60777678    -0.40700
O859        O  0.77830649  0.94892504  0.52683222    -0.77300
O860        O  0.71900091  0.94828196  0.52606183    -0.96000
O861        O  0.71779671  0.97145649  0.45484707    -0.89300
O862        O  0.78108968  0.97277789  0.45585973    -0.92100
C863        C  0.74510166  0.06680167  0.60921262     1.01600
C864        C  0.82276412  0.08945700  0.53330823     1.14600
C865        C  0.67251273  0.08616375  0.53420395     1.05300
O866        O  0.65174446  0.96772660  0.53908002    -0.94300
O867        O  0.66549101  0.94103865  0.47451002    -0.90000
O868        O  0.70159858  0.89671131  0.46310505    -0.83200
C869        C  0.67438686  0.90864473  0.46274334     1.12000
O870        O  0.74777947  0.08326931  0.40741986    -0.96300
Zr871      Zr  0.74929539  0.01816448  0.42989838     1.88900
O872        O  0.75398504  0.90985709  0.41982319    -0.72900
O873        O  0.65067486  0.02291924  0.46271504    -0.52200
O874        O  0.70588184  0.02270395  0.39278622    -0.96800
O875        O  0.79272944  0.03076047  0.39386924    -0.54100
O876        O  0.75067409  0.96477086  0.38892513    -0.73400
C877        C  0.75307970  0.92813418  0.39154793     0.98900
O878        O  0.74842116  0.86047570  0.50350205    -0.62200
O879        O  0.84350525  0.97753693  0.54712564    -0.57000
O880        O  0.79781090  0.89591023  0.46832567    -0.93700
O881        O  0.83365823  0.93944366  0.48275640    -0.92200
O882        O  0.79222977  0.96408150  0.60555935    -0.92500
O883        O  0.74664905  0.91351902  0.59945957    -0.91300
C884        C  0.82507225  0.90697902  0.47068287     1.17800
H885        H  0.79131952  0.03396637  0.56523608     0.33700
H886        H  0.70674382  0.92771332  0.53482929     0.44600
H887        H  0.79428539  0.96248051  0.43854939     0.38100
H888        H  0.70617872  0.06485712  0.46557939     0.34600
H889        H  0.71130809  0.96926746  0.63140418     0.26400
H890        H  0.65454302  0.01051304  0.44032292     0.32300
H891        H  0.71392575  0.02067572  0.36921300     0.38200
H892        H  0.78795220  0.97604848  0.62805613     0.32700
H893        H  0.86362714  0.98353785  0.53802978     0.31500
H894        H  0.86709437  0.00645721  0.47233580     0.33200
H895        H  0.80160394  0.00528741  0.38902414     0.32200
H896        H  0.75188284  0.89501957  0.58110906     0.36200
H897        H  0.76359366  0.86100979  0.52181487     0.28900
H898        H  0.74512963  0.15092931  0.51494782     0.33200
H899        H  0.74337930  0.08047330  0.38275730     0.36000
H900        H  0.84047375  0.99620226  0.56598259     0.28600
H901        H  0.72912902  0.85888712  0.51587215     0.41500
H902        H  0.65263900  0.98350513  0.56013888     0.31500
H903        H  0.69100505  0.98737057  0.60341004     0.39200
H904        H  0.80720585  0.04337922  0.40930888     0.31000
H905        H  0.63161836  0.01156808  0.47070331     0.31100
H906        H  0.73110772  0.13429682  0.48136483     0.31300
C907        C  0.75125055  0.71355923  0.16079008     0.45800
H908        H  0.75124015  0.68175488  0.15975077    -0.03300
C909        C  0.75045144  0.78803562  0.16119136     0.45800
H910        H  0.75067725  0.81979803  0.16109428    -0.03300
C911        C  0.77763411  0.73163057  0.14166017    -0.16900
C912        C  0.72323614  0.73068141  0.14439630    -0.16700
C913        C  0.75230335  0.73080154  0.19712687    -0.17100
C914        C  0.77749244  0.77100917  0.14231815    -0.17100
C915        C  0.72288102  0.77013457  0.14414943    -0.16600
C916        C  0.75147278  0.77049195  0.19731355    -0.16900
Zr917      Zr  0.74579275  0.57337695  0.47774149     2.17500
O918        O  0.74675367  0.63825318  0.50117903    -0.51000
O919        O  0.74355120  0.58940875  0.41811599    -0.74200
O920        O  0.79436838  0.60161900  0.46225370    -0.81000
O921        O  0.66278488  0.55337025  0.47072507    -0.82800
O922        O  0.83051166  0.55723019  0.47238252    -0.78400
O923        O  0.69683560  0.60186646  0.46649436    -0.90000
O924        O  0.75148255  0.53505321  0.38701648    -0.76000
O925        O  0.77914059  0.52778103  0.45334024    -0.85500
O926        O  0.71628742  0.52471239  0.45145539    -0.85200
O927        O  0.77478338  0.55018588  0.52499420    -0.71900
O928        O  0.71517007  0.54719087  0.52280038    -0.84000
Zr929      Zr  0.74770627  0.42805680  0.51787566     2.26400
Zr930      Zr  0.80718455  0.50305222  0.49983427     2.06300
Zr931      Zr  0.68623621  0.49766043  0.49576883     2.10000
Zr932      Zr  0.74959423  0.48019888  0.42665370     1.78800
O933        O  0.64691247  0.51954365  0.53443136    -0.92800
O934        O  0.79449799  0.46632785  0.39361153    -0.40700
O935        O  0.71896657  0.45113241  0.47045698    -0.77300
O936        O  0.77828785  0.45386008  0.47275540    -0.96000
O937        O  0.77736042  0.47623211  0.54400708    -0.89300
O938        O  0.71464718  0.47400528  0.54244851    -0.92100
C939        C  0.74728337  0.57153833  0.38976227     1.01600
C940        C  0.67052567  0.58760078  0.46267186     1.14600
C941        C  0.82165938  0.58979829  0.46129597     1.05300
O942        O  0.84634048  0.47592452  0.46372219    -0.94300
O943        O  0.83049750  0.44882568  0.52710775    -0.90000
O944        O  0.79617823  0.40085489  0.53175345    -0.83200
C945        C  0.82257441  0.41475522  0.53536697     1.12000
O946        O  0.74231885  0.58597597  0.59294828    -0.96300
Zr947      Zr  0.74436475  0.52143064  0.56891152     1.88900
O948        O  0.75036276  0.41258534  0.57778591    -0.72900
O949        O  0.84164879  0.53275728  0.54008549    -0.52200
O950        O  0.78656029  0.53310128  0.60655368    -0.96800
O951        O  0.69963004  0.53013826  0.60388082    -0.54100
O952        O  0.74629366  0.46745652  0.60922063    -0.73400
C953        C  0.74921312  0.43080546  0.60628447     0.98900
O954        O  0.74948523  0.36434417  0.49202654    -0.62200
O955        O  0.65191026  0.47238268  0.45315854    -0.57000
O956        O  0.70016463  0.39723458  0.53184156    -0.93700
O957        O  0.66326993  0.43933334  0.51794817    -0.92200
O958        O  0.70762109  0.47058844  0.38818217    -0.92500
O959        O  0.74995735  0.41727706  0.39945740    -0.91300
C960        C  0.67257478  0.40744078  0.53040119     1.17800
H961        H  0.70419902  0.53461421  0.43315514     0.33700
H962        H  0.79138105  0.43407476  0.46393046     0.44600
H963        H  0.70204943  0.46316469  0.55997190     0.38100
H964        H  0.78640958  0.57090018  0.53458790     0.34600
H965        H  0.78904041  0.47214777  0.36969096     0.26400
H966        H  0.84072504  0.51644126  0.56069511     0.32300
H967        H  0.79934640  0.51009226  0.60397114     0.38200
H968        H  0.71508022  0.47862158  0.36543975     0.32700
H969        H  0.63179369  0.47840859  0.46230199     0.31500
H970        H  0.62819085  0.50983894  0.52419933     0.33200
H971        H  0.69398885  0.50412502  0.61164299     0.32200
H972        H  0.74169444  0.39980867  0.41700370     0.36200
H973        H  0.73026843  0.36167838  0.47985925     0.28900
H974        H  0.74999472  0.65496222  0.48107292     0.33200
H975        H  0.74152642  0.58245840  0.61804486     0.36000
H976        H  0.65427212  0.48946444  0.43316494     0.28600
H977        H  0.76455921  0.36652849  0.47353112     0.41500
H978        H  0.86492199  0.48850650  0.47154798     0.31500
H979        H  0.80868069  0.48687095  0.40005502     0.39200
H980        H  0.68387489  0.53727285  0.58744858     0.31000
H981        H  0.86172779  0.52780285  0.53031041     0.31100
H982        H  0.76566834  0.63982382  0.51408035     0.31300
C983        C  0.75332580  0.28843197  0.83448391     0.45800
H984        H  0.75394748  0.32017514  0.83479283    -0.03300
C985        C  0.75358091  0.21388180  0.83433334     0.45800
H986        H  0.75340244  0.18203710  0.83426364    -0.03300
C987        C  0.78121416  0.27122694  0.85068695    -0.16900
C988        C  0.72691827  0.27078495  0.85412011    -0.16700
C989        C  0.75188752  0.27096258  0.79832305    -0.17100
C990        C  0.78131425  0.23182866  0.85118318    -0.17100
C991        C  0.72682008  0.23123692  0.85353284    -0.16600
C992        C  0.75205370  0.23128157  0.79824399    -0.16900
C993        C  0.74637284  0.38719942  0.68732205     0.30100
C994        C  0.73831565  0.38281378  0.72183819    -0.36300
C995        C  0.74503711  0.34714242  0.73655381     0.16100
C996        C  0.75913174  0.31794809  0.71885478     0.19900
C997        C  0.76709818  0.32224738  0.68436746    -0.34400
C998        C  0.76000242  0.35766815  0.66951796     0.16000
O999        O  0.74132719  0.41758931  0.66799055    -0.26400
C1000       C  0.75163884  0.40711092  0.63733439     0.05800
C1001       C  0.76350480  0.37017371  0.63692273    -0.31300
O1002       O  0.76340329  0.28713730  0.73776650    -0.23100
C1003       C  0.75138988  0.29640049  0.76789593    -0.03100
C1004       C  0.73974686  0.33349271  0.76851412    -0.17500
H1005       H  0.72720805  0.40539474  0.73610012     0.20500
H1006       H  0.77772609  0.29939283  0.66996811     0.18800
H1007       H  0.77294153  0.35456444  0.61544811     0.18800
H1008       H  0.72873796  0.34831109  0.78942448     0.14600
C1009       C  0.74588236  0.68539191  0.27745084     0.30100
C1010       C  0.73861538  0.68236917  0.31221501    -0.36300
C1011       C  0.74251685  0.64604318  0.32680627     0.16100
C1012       C  0.75267720  0.61460030  0.30858650     0.21900
C1013       C  0.76026297  0.61779673  0.27380232    -0.34400
C1014       C  0.75663649  0.65432753  0.25927063     0.16000
O1015       O  0.74322636  0.71639587  0.25850230    -0.26400
C1016       C  0.75286906  0.70547947  0.22774052     0.05800
C1017       C  0.76162149  0.66703612  0.22689336    -0.31300
O1018       O  0.75510595  0.58355081  0.32777653    -0.23100
C1019       C  0.74660994  0.59551831  0.35873196    -0.03100
C1020       C  0.73846330  0.63409359  0.35944875    -0.17500
H1021       H  0.73055000  0.70667898  0.32690178     0.20500
H1022       H  0.76855266  0.59360306  0.25914110     0.18800
H1023       H  0.77023057  0.65049772  0.20555922     0.18800
H1024       H  0.73118435  0.65112266  0.38116091     0.14600
C1025       C  0.74779765  0.88494036  0.31059270     0.30100
C1026       C  0.73948500  0.88131061  0.27620958    -0.36300
C1027       C  0.74561981  0.84576020  0.26071327     0.16100
C1028       C  0.75915061  0.81589882  0.27766296     0.21900
C1029       C  0.76693851  0.81921043  0.31219758    -0.34400
C1030       C  0.76068091  0.85466188  0.32773725     0.16000
O1031       O  0.74415680  0.91556543  0.33023100    -0.26400
C1032       C  0.75465176  0.90450420  0.36038106     0.05800
C1033       C  0.76513199  0.86691154  0.36026549    -0.31300
O1034       O  0.76327573  0.78554726  0.25794481    -0.23100
C1035       C  0.75171063  0.79571294  0.22806997    -0.03100
C1036       C  0.74049673  0.83302269  0.22841589    -0.17500
H1037       H  0.72900297  0.90454616  0.26248629     0.20500
H1038       H  0.77718564  0.79582986  0.32597412     0.18800
H1039       H  0.77439759  0.85082621  0.38131514     0.18800
H1040       H  0.72975104  0.84858155  0.20802315     0.14600
C1041       C  0.73695592  0.13737860  0.67215584     0.30100
C1042       C  0.72896845  0.17353180  0.68506566    -0.36300
C1043       C  0.73816577  0.18162853  0.71847546     0.16100
C1044       C  0.75422054  0.15602938  0.73785002     0.21900
C1045       C  0.76169968  0.11943490  0.72517954    -0.34400
C1046       C  0.75233744  0.11120443  0.69174157     0.16000
O1047       O  0.73197002  0.12479638  0.64095448    -0.26400
C1048       C  0.74386352  0.08985325  0.64059091     0.05800
C1049       C  0.75671472  0.07964307  0.67154207    -0.31300
O1050       O  0.76128673  0.17024705  0.76804835    -0.23100
C1051       C  0.74982586  0.20556224  0.76795578    -0.03100
C1052       C  0.73450915  0.21370602  0.73797548    -0.17500
H1053       H  0.71692267  0.19420313  0.66985941     0.20500
H1054       H  0.77430475  0.09907677  0.74012335     0.18800
H1055       H  0.76867107  0.05359667  0.67766354     0.18800
H1056       H  0.72188500  0.23908099  0.73153966     0.14600
C1057       C  0.61739397  0.65400194  0.43491376     0.30100
C1058       C  0.60023592  0.68758474  0.43574869    -0.36300
C1059       C  0.57882944  0.69116474  0.40995118     0.16100
C1060       C  0.57463237  0.66389537  0.38476822     0.21900
C1061       C  0.59124038  0.62974236  0.38443400    -0.34400
C1062       C  0.61254050  0.62600792  0.41043532     0.16000
O1063       O  0.63901105  0.64501932  0.45626531    -0.26400
C1064       C  0.64774600  0.61056970  0.44558008     0.05800
C1065       C  0.63205385  0.59724812  0.41730569    -0.31300
O1066       O  0.55453190  0.67443245  0.36205573    -0.23100
C1067       C  0.54588494  0.70903931  0.37276636    -0.03100
C1068       C  0.55962734  0.72015791  0.40312362    -0.17500
H1069       H  0.60361653  0.70965499  0.45489353     0.20500
H1070       H  0.58809974  0.60790069  0.36502023     0.18800
H1071       H  0.63480101  0.57028268  0.40378759     0.18800
H1072       H  0.55635771  0.74612067  0.41793816     0.14600
C1073       C  0.88648610  0.63039535  0.42608190     0.30100
C1074       C  0.91678245  0.63157638  0.41649658    -0.36300
C1075       C  0.92557742  0.66317340  0.39672872     0.16100
C1076       C  0.90590939  0.69160492  0.38740588     0.21900
C1077       C  0.87575135  0.69062275  0.39717791    -0.34400
C1078       C  0.86690672  0.65899434  0.41672545     0.16000
O1079       O  0.87321493  0.60292030  0.44351119    -0.26400
C1080       C  0.84479316  0.61409829  0.44549400     0.05800
C1081       C  0.83956253  0.64885771  0.42926917    -0.31300
O1082       O  0.91879627  0.71867711  0.36933848    -0.23100
C1083       C  0.94717812  0.70793517  0.36696728    -0.03100
C1084       C  0.95269520  0.67323650  0.38332281    -0.17500
H1085       H  0.93230540  0.60926661  0.42367920     0.20500
H1086       H  0.86024793  0.71290923  0.38987041     0.18800
H1087       H  0.81858892  0.66387649  0.42636897     0.18800
H1088       H  0.97373546  0.65830520  0.38592741     0.14600
C1089       C  0.86841813  0.84808108  0.41846827     0.30100
C1090       C  0.87423101  0.82565093  0.38941712    -0.36300
C1091       C  0.90431922  0.81779702  0.38273982     0.16100
C1092       C  0.92712745  0.83058174  0.40348201     0.21900
C1093       C  0.92137017  0.85383823  0.43209810    -0.34400
C1094       C  0.89124245  0.86199755  0.43862429     0.16000
O1095       O  0.84198690  0.86001476  0.42870564    -0.26400
C1096       C  0.84792119  0.88215014  0.45556833     0.05800
C1097       C  0.87820241  0.88448004  0.46297967    -0.31300
O1098       O  0.95335630  0.81713689  0.39393164    -0.23100
C1099       C  0.94712960  0.79545301  0.36686213    -0.03100
C1100       C  0.91717993  0.79593517  0.35795158    -0.17500
H1101       H  0.85652435  0.81498744  0.37322192     0.20500
H1102       H  0.93907882  0.86447821  0.44829660     0.18800
H1103       H  0.88904677  0.90168488  0.48239511     0.18800
H1104       H  0.90629105  0.78065898  0.33733338     0.14600
C1105       C  0.59003429  0.81310714  0.38340488     0.30100
C1106       C  0.62031496  0.81330443  0.39241252    -0.36300
C1107       C  0.62934825  0.84326924  0.41402357     0.16100
C1108       C  0.60993415  0.87129797  0.42551416     0.21900
C1109       C  0.57973228  0.87124420  0.41633565    -0.34400
C1110       C  0.57064705  0.84107384  0.39507723     0.16000
O1111       O  0.57635138  0.78616275  0.36578162    -0.26400
C1112       C  0.54780305  0.79668219  0.36665162     0.05800
C1113       C  0.54299141  0.83105479  0.38391102    -0.31300
O1114       O  0.62312423  0.89689619  0.44505136    -0.23100
C1115       C  0.65135327  0.88513834  0.44630444    -0.03100
C1116       C  0.65657327  0.85177492  0.42756132    -0.17500
H1117       H  0.63556713  0.79113677  0.38384833     0.20500
H1118       H  0.56429581  0.89282605  0.42564447     0.18800
H1119       H  0.52196290  0.84515471  0.38937595     0.18800
H1120       H  0.67748361  0.83681773  0.42357713     0.14600
C1121       C  0.66793259  0.30851969  0.90320633     0.30100
C1122       C  0.64068547  0.30685610  0.92068999    -0.36300
C1123       C  0.63012285  0.34173683  0.93355615     0.16100
C1124       C  0.64564125  0.37573448  0.92999114     0.21900
C1125       C  0.67297540  0.37732092  0.91238166    -0.34400
C1126       C  0.68324077  0.34242859  0.89891584     0.16000
O1127       O  0.68125317  0.27950032  0.88833657    -0.26400
C1128       C  0.70526617  0.29454626  0.87369586     0.05800
C1129       C  0.70773243  0.33392686  0.87955172    -0.31300
O1130       O  0.63103471  0.40513433  0.94294987    -0.23100
C1131       C  0.60582225  0.38977164  0.95467566    -0.03100
C1132       C  0.60395914  0.35040786  0.94949777    -0.17500
H1133       H  0.62828374  0.28035710  0.92331428     0.20500
H1134       H  0.68494075  0.40397725  0.90869664     0.18800
H1135       H  0.72487133  0.35362077  0.87111964     0.18800
H1136       H  0.58564491  0.33130014  0.95555261     0.14600
C1137       C  0.84649404  0.31523772  0.88102999     0.30100
C1138       C  0.87747481  0.32007856  0.88453206    -0.36300
C1139       C  0.88679325  0.34221614  0.91259038     0.16100
C1140       C  0.86689559  0.35908106  0.93512164     0.21900
C1141       C  0.83595972  0.35418786  0.93166185    -0.34400
C1142       C  0.82667190  0.33155690  0.90397476     0.16000
O1143       O  0.83304102  0.29360165  0.85806968    -0.26400
C1144       C  0.80430246  0.29567392  0.86668388     0.05800
C1145       C  0.79892652  0.31934740  0.89472815    -0.31300
O1146       O  0.88027338  0.38016236  0.95848663    -0.23100
C1147       C  0.90919417  0.37638473  0.95130704    -0.03100
C1148       C  0.91464928  0.35283322  0.92308053    -0.17500
H1149       H  0.89320463  0.30698062  0.86692636     0.20500
H1150       H  0.82024436  0.36691710  0.94949771     0.18800
H1151       H  0.77789015  0.32477033  0.90761041     0.18800
H1152       H  0.93583013  0.34649979  0.91085308     0.14600
C1153       C  0.63825672  0.63811178  0.06278427     0.30100
C1154       C  0.66918223  0.64251517  0.06700982    -0.36300
C1155       C  0.67812209  0.66757988  0.09317138     0.16100
C1156       C  0.65798111  0.68657191  0.11400330     0.21900
C1157       C  0.62706054  0.68223987  0.10973138    -0.34400
C1158       C  0.61811474  0.65763001  0.08322174     0.16000
O1159       O  0.62505291  0.61517787  0.04067077    -0.26400
C1160       C  0.59602911  0.62040734  0.04658033     0.05800
C1161       C  0.59037001  0.64667542  0.07275137    -0.31300
O1162       O  0.67116243  0.70968229  0.13597205    -0.23100
C1163       C  0.70007420  0.70609741  0.12869677    -0.03100
C1164       C  0.70581047  0.67973492  0.10272246    -0.17500
H1165       H  0.68514148  0.62759137  0.05089645     0.20500
H1166       H  0.61111048  0.69738337  0.12569364     0.18800
H1167       H  0.56904970  0.65467620  0.08381359     0.18800
H1168       H  0.72713349  0.67230539  0.09135545     0.14600
C1169       C  0.87281082  0.64727730  0.06695161     0.30100
C1170       C  0.85729620  0.68208812  0.06513898    -0.36300
C1171       C  0.83482915  0.68750059  0.08971142     0.16100
C1172       C  0.82847191  0.66102634  0.11482307     0.21900
C1173       C  0.84350484  0.62584303  0.11618435    -0.34400
C1174       C  0.86552391  0.62001387  0.09113397     0.16000
O1175       O  0.89497509  0.63633964  0.04686906    -0.26400
C1176       C  0.90145588  0.60135994  0.05797496     0.05800
C1177       C  0.88374558  0.58955328  0.08521240    -0.31300
O1178       O  0.80744793  0.67286503  0.13603198    -0.23100
C1179       C  0.80024998  0.70740251  0.12436317    -0.03100
C1180       C  0.81591790  0.71733454  0.09486163    -0.17500
H1181       H  0.86244626  0.70349760  0.04603574     0.20500
H1182       H  0.83846003  0.60458366  0.13545372     0.18800
H1183       H  0.88464861  0.56272043  0.09900148     0.18800
H1184       H  0.81381385  0.74274027  0.07928493     0.14600
C1185       C  0.50533602  0.65733450  0.23892476     0.30100
C1186       C  0.51393872  0.62080111  0.22718688    -0.36300
C1187       C  0.50524470  0.61128427  0.19381236     0.16100
C1188       C  0.99034603  0.63706698  0.17215645     0.21900
C1189       C  0.98349389  0.67434505  0.18324495    -0.34400
C1190       C  0.99119196  0.68309969  0.21701929     0.16000
O1191       O  0.51135900  0.67234895  0.26905794    -0.26400
C1192       C  0.00009176  0.70740387  0.26710629     0.05800
C1193       C  0.98744175  0.71586026  0.23555992    -0.31300
O1194       O  0.98669061  0.62359611  0.14106095    -0.23100
C1195       C  0.99702496  0.58787124  0.14263634    -0.03100
C1196       C  0.51102173  0.57957068  0.17422593    -0.17500
H1197       H  0.52689940  0.60145095  0.24277255     0.20500
H1198       H  0.97331013  0.69521782  0.16653898     0.18800
H1199       H  0.97592853  0.74157036  0.22765732     0.18800
H1200       H  0.52378883  0.55439194  0.18101019     0.14600
C1201       C  0.60799451  0.36419191  0.56323876     0.30100
C1202       C  0.57716008  0.35952203  0.56820181    -0.36300
C1203       C  0.56862578  0.33459130  0.59450917     0.16100
C1204       C  0.58904120  0.31568701  0.61467067     0.21900
C1205       C  0.61987851  0.32032840  0.60972602    -0.34400
C1206       C  0.62841820  0.34497679  0.58315337     0.16000
O1207       O  0.62084987  0.38728909  0.54098710    -0.26400
C1208       C  0.64993351  0.38248119  0.54630271     0.05800
C1209       C  0.65596748  0.35630485  0.57217859    -0.31300
O1210       O  0.57617535  0.29215856  0.63648922    -0.23100
C1211       C  0.54722344  0.29564170  0.62984679    -0.03100
C1212       C  0.54111183  0.32219375  0.60448967    -0.17500
H1213       H  0.56095818  0.37416295  0.55251939     0.20500
H1214       H  0.63605560  0.30536175  0.62520462     0.18800
H1215       H  0.67742334  0.34858520  0.58273435     0.18800
H1216       H  0.51968864  0.32940091  0.59359498     0.14600
C1217       C  0.90691632  0.30965061  0.60307162     0.30100
C1218       C  0.87810781  0.30894017  0.58930609    -0.36300
C1219       C  0.86834248  0.34326321  0.57472801     0.16100
C1220       C  0.88599963  0.37569238  0.57324578     0.21900
C1221       C  0.91483822  0.37629496  0.58703394    -0.34400
C1222       C  0.92436334  0.34216022  0.60221941     0.16000
O1223       O  0.92019971  0.28103812  0.61840140    -0.26400
C1224       C  0.94647702  0.29502990  0.62787194     0.05800
C1225       C  0.95023599  0.33326942  0.61855418    -0.31300
O1226       O  0.87233497  0.40470774  0.55874062    -0.23100
C1227       C  0.84556817  0.39076464  0.55094573    -0.03100
C1228       C  0.84169463  0.35270724  0.56048411    -0.17500
H1229       H  0.86418511  0.28357035  0.59033464     0.20500
H1230       H  0.92866298  0.40175102  0.58641635     0.18800
H1231       H  0.96926409  0.35179052  0.62262208     0.18800
H1232       H  0.82206331  0.33487166  0.55769453     0.14600
C1233       C  0.90504536  0.18720636  0.61278117     0.30100
C1234       C  0.87431196  0.18262276  0.60744474    -0.36300
C1235       C  0.86622687  0.15598798  0.58219014     0.16100
C1236       C  0.88694357  0.13480599  0.56391965     0.21900
C1237       C  0.91769385  0.13978997  0.56894802    -0.34400
C1238       C  0.92578894  0.16687399  0.59383550     0.16000
O1239       O  0.91755017  0.21136829  0.63434858    -0.26400
C1240       C  0.94665933  0.20732049  0.62850259     0.05800
C1241       C  0.95313485  0.17952096  0.60398486    -0.31300
O1242       O  0.87439475  0.10970966  0.54319579    -0.23100
C1243       C  0.84526899  0.11533101  0.54781843    -0.03100
C1244       C  0.83886061  0.14398436  0.57162338    -0.17500
H1245       H  0.85787604  0.19878132  0.62189498     0.20500
H1246       H  0.93413735  0.12359927  0.55454726     0.18800
H1247       H  0.97474449  0.17117731  0.59399917     0.18800
H1248       H  0.81724200  0.15292823  0.58125024     0.14600
C1249       C  0.60824727  0.12652675  0.57031295     0.30100
C1250       C  0.57950916  0.12597429  0.58474099    -0.36300
C1251       C  0.56973447  0.16048329  0.59952085     0.16100
C1252       C  0.58694548  0.19322728  0.59979244     0.21900
C1253       C  0.61566527  0.19385205  0.58531767    -0.34400
C1254       C  0.62556290  0.15928897  0.57074854     0.16000
O1255       O  0.62225136  0.09707706  0.55649690    -0.26400
C1256       C  0.64892541  0.11102668  0.54806293     0.05800
C1257       C  0.65227719  0.14967160  0.55622156    -0.31300
O1258       O  0.57351583  0.22209739  0.61520342    -0.23100
C1259       C  0.54733419  0.20795507  0.62522694    -0.03100
C1260       C  0.54381541  0.16950686  0.61605552    -0.17500
H1261       H  0.56594640  0.10027094  0.58492915     0.20500
H1262       H  0.62946065  0.21934949  0.58584292     0.18800
H1263       H  0.67176840  0.16764641  0.55284226     0.18800
H1264       H  0.52497639  0.15076843  0.62053020     0.14600
C1265       C  0.99306970  0.34297505  0.76218725     0.30100
C1266       C  0.98403559  0.37812769  0.77673183    -0.36300
C1267       C  0.99389320  0.38541202  0.81019479     0.16100
C1268       C  0.51230057  0.36077275  0.82750707     0.21900
C1269       C  0.52175195  0.32567991  0.81338224    -0.34400
C1270       C  0.51153019  0.31737800  0.78033356     0.16000
O1271       O  0.98580061  0.32961971  0.73169478    -0.26400
C1272       C  0.99907936  0.29540707  0.72997799     0.05800
C1273       C  0.51628865  0.28633956  0.75970908    -0.31300
O1274       O  0.51785631  0.37324255  0.85868370    -0.23100
C1275       C  0.00315453  0.40512448  0.86179972    -0.03100
C1276       C  0.98871271  0.41559181  0.83181137    -0.17500
H1277       H  0.96997251  0.39809865  0.76313290     0.20500
H1278       H  0.53568045  0.30593693  0.82742078     0.18800
H1279       H  0.53055606  0.26195846  0.76465830     0.18800
H1280       H  0.97559132  0.44107574  0.82706371     0.14600
C1281       C  0.86140491  0.13245316  0.93267788     0.30100
C1282       C  0.83312139  0.13110000  0.91747949    -0.36300
C1283       C  0.82475346  0.16370687  0.89909422     0.16100
C1284       C  0.84283222  0.19550772  0.89623084     0.21900
C1285       C  0.87114764  0.19691196  0.91129742    -0.34400
C1286       C  0.87965606  0.16416189  0.92946421     0.16000
O1287       O  0.87433649  0.10428097  0.94928379    -0.26400
C1288       C  0.90128273  0.11792157  0.95677859     0.05800
C1289       C  0.90583388  0.15518730  0.94515307    -0.31300
O1290       O  0.83034527  0.22297344  0.87846619    -0.23100
C1291       C  0.80393715  0.20881014  0.86957619    -0.03100
C1292       C  0.79934860  0.17171697  0.88155194    -0.17500
H1293       H  0.81885287  0.10613532  0.91941978     0.20500
H1294       H  0.88560361  0.22163855  0.90871527     0.18800
H1295       H  0.92597726  0.17228128  0.94642438     0.18800
H1296       H  0.77993420  0.15358556  0.87872939     0.14600
C1297       C  0.66137809  0.18844794  0.88588054     0.30100
C1298       C  0.63053628  0.18527613  0.89177260    -0.36300
C1299       C  0.62166360  0.15764060  0.91570473     0.16100
C1300       C  0.64178323  0.13441954  0.93237473     0.21900
C1301       C  0.67269723  0.13809380  0.92694349    -0.34400
C1302       C  0.68158277  0.16603742  0.90323577     0.16000
O1303       O  0.67447647  0.21281828  0.86499465    -0.26400
C1304       C  0.70351828  0.20684845  0.86963383     0.05800
C1305       C  0.70928501  0.17757083  0.89274669    -0.31300
O1306       O  0.62850779  0.10896566  0.95212020    -0.23100
C1307       C  0.59951103  0.11629106  0.94847608    -0.03100
C1308       C  0.59392314  0.14648601  0.92625228    -0.17500
H1309       H  0.61457450  0.20309225  0.87855153     0.20500
H1310       H  0.68866960  0.12023171  0.94009960     0.18800
H1311       H  0.73068469  0.16747897  0.90164774     0.18800
H1312       H  0.57255489  0.15725663  0.91777531     0.14600
C1313       C  0.49036252  0.18380340  0.77839076     0.30100
C1314       C  0.48306817  0.18053103  0.81313406    -0.36300
C1315       C  0.48929131  0.14497678  0.82810764     0.16100
C1316       C  0.00037686  0.11538231  0.80976910     0.21900
C1317       C  0.00830001  0.11896874  0.77518138    -0.34400
C1318       C  0.00236176  0.15468808  0.76021670     0.16000
O1319       O  0.48666479  0.21445958  0.75926007    -0.26400
C1320       C  0.49761991  0.20409905  0.72890364     0.05800
C1321       C  0.00754811  0.16764426  0.72801133    -0.31300
O1322       O  0.00457926  0.08495335  0.82919350    -0.23100
C1323       C  0.49620023  0.09529757  0.86013821    -0.03100
C1324       C  0.48577543  0.13291760  0.86078529    -0.17500
H1325       H  0.47346771  0.20412332  0.82754158     0.20500
H1326       H  0.01861948  0.09570180  0.76102137     0.18800
H1327       H  0.01790148  0.15205703  0.70711264     0.18800
H1328       H  0.47716926  0.14911911  0.88237528     0.14600
C1329       C  0.84346048  0.81247466  0.11035632     0.30100
C1330       C  0.87397829  0.81390122  0.10200030    -0.36300
C1331       C  0.88258789  0.84302558  0.07933511     0.16100
C1332       C  0.86254769  0.86908839  0.06618397     0.21900
C1333       C  0.83211988  0.86766594  0.07455070    -0.34400
C1334       C  0.82349668  0.83845111  0.09696574     0.16000
O1335       O  0.83021009  0.78636191  0.12940435    -0.26400
C1336       C  0.80137407  0.79549239  0.12783233     0.05800
C1337       C  0.79596534  0.82805465  0.10849737    -0.31300
O1338       O  0.87544739  0.89478411  0.04650893    -0.23100
C1339       C  0.90413595  0.88502046  0.04673181    -0.03100
C1340       C  0.90994430  0.85287753  0.06664137    -0.17500
H1341       H  0.88979806  0.79347356  0.11211834     0.20500
H1342       H  0.81624727  0.88783260  0.06413863     0.18800
H1343       H  0.77471658  0.84077382  0.10211614     0.18800
H1344       H  0.93131086  0.83991489  0.07225859     0.14600
C1345       C  0.65974503  0.80823830  0.10300338     0.30100
C1346       C  0.63095411  0.80739972  0.08912851    -0.36300
C1347       C  0.62175934  0.84097948  0.07272042     0.16100
C1348       C  0.63976126  0.87299874  0.07012038     0.21900
C1349       C  0.66848288  0.87382942  0.08418779    -0.34400
C1350       C  0.67759024  0.84030577  0.10071341     0.16000
O1351       O  0.67298676  0.77988520  0.11886705    -0.26400
C1352       C  0.69968277  0.79366423  0.12706719     0.05800
C1353       C  0.70367370  0.83144851  0.11652925    -0.31300
O1354       O  0.62654077  0.90147067  0.05428378    -0.23100
C1355       C  0.59970455  0.88762460  0.04665485    -0.03100
C1356       C  0.59541002  0.85006924  0.05752594    -0.17500
H1357       H  0.61676207  0.78234631  0.09102948     0.20500
H1358       H  0.68266302  0.89889916  0.08247217     0.18800
H1359       H  0.72307537  0.84961476  0.11921007     0.18800
H1360       H  0.57557527  0.83250271  0.05535139     0.14600
C1361       C  0.01264188  0.82013855  0.21955949     0.30100
C1362       C  0.02362606  0.82497025  0.18618282    -0.36300
C1363       C  0.01633507  0.85973129  0.17023983     0.16100
C1364       C  0.50058375  0.88833679  0.18706737     0.21900
C1365       C  0.49098682  0.88427375  0.22105752    -0.34400
C1366       C  0.49682804  0.84870235  0.23636934     0.16000
O1367       O  0.01640351  0.78971298  0.23910277    -0.26400
C1368       C  0.50033844  0.79772641  0.26810427     0.05800
C1369       C  0.48945719  0.83520515  0.26784548    -0.31300
O1370       O  0.49577627  0.91824982  0.16717689    -0.23100
C1371       C  0.50701478  0.90747997  0.13708416    -0.03100
C1372       C  0.02208080  0.87242647  0.13803543    -0.17500
H1373       H  0.03656394  0.80293466  0.17334563     0.20500
H1374       H  0.47905803  0.90689714  0.23435763     0.18800
H1375       H  0.47732117  0.85031582  0.28773818     0.18800
H1376       H  0.03398611  0.85758283  0.11776502     0.14600
loop_ 
_geom_bond_atom_site_label_1 
_geom_bond_atom_site_label_2 
_geom_bond_distance 
_geom_bond_site_symmetry_2 
_ccdc_geom_bond_type 
Zr1           O3   2.401   1_455  S
Zr1           O4   2.450       .  S
Zr1         O695   2.442   1_455  S
Zr1           O9   2.379       .  S
Zr1          O11   2.402   1_556  S
Zr1         O698   2.379   1_455  S
Zr1         O700   2.401   1_456  S
Zr1         O690   2.435   1_556  S
O2         Zr689   2.435   1_554  S
O2          H746   0.991   1_554  S
O2          H754   0.990       .  S
O3           C23   1.279       .  A
O4           C25   1.289       .  A
O5          Zr15   2.422       .  S
O5           C24   1.283       .  A
O6          Zr14   2.415       .  S
O6           C25   1.282       .  A
O7         Zr689   2.435       .  S
O7           C24   1.286       .  A
O8         Zr704   2.454   1_645  S
O8           C23   1.287       .  A
O9          Zr14   2.381       .  S
O9         Zr704   2.366   1_545  S
O10         Zr15   2.379       .  S
O10         Zr16   2.369   1_545  S
O10        Zr689   2.384       .  S
O10          H45   0.966       .  S
O11         Zr14   2.396   1_554  S
O11         Zr31   2.400       .  S
O11          H48   0.965       .  S
O12         Zr15   2.395   1_554  S
O12        Zr689   2.400   1_554  S
O12        Zr719   2.404       .  S
Zr13         O32   2.410       .  S
Zr13         O40   2.434       .  S
Zr13        O716   2.434       .  S
Zr13         O19   2.399   1_554  S
Zr13         O22   2.382       .  S
Zr13        O708   2.405   1_554  S
Zr13        O709   2.371       .  S
Zr13         O38   2.438   1_554  S
Zr14         O27   2.414   1_546  S
Zr14         O20   2.396   1_545  S
Zr14         O21   2.372   1_546  S
Zr14         O33   2.437   1_556  S
Zr14         O26   2.435   1_545  S
Zr15         O41   2.420   1_546  S
Zr15         O19   2.394   1_545  S
Zr15         O22   2.384   1_546  S
Zr15         O17   2.435   1_556  S
Zr15         O39   2.436   1_545  S
Zr16        O696   2.452   1_565  S
Zr16         O19   2.404       .  S
Zr16        O697   2.368   1_565  S
Zr16        O708   2.405       .  S
Zr16         O42   2.438       .  S
Zr16         O43   2.437       .  S
Zr16        O706   2.437       .  S
O17          H54   0.990       .  S
O18        Zr704   2.438       .  S
O18          H49   0.990       .  S
O18          H63   0.990       .  S
O20        Zr701   2.406   1_556  S
O20        Zr704   2.407       .  S
O20          H46   0.968       .  S
O21         Zr31   2.364   1_565  S
O21        Zr701   2.370       .  S
O22        Zr719   2.364   1_565  S
O22          H47   0.964       .  S
C23         C635   1.468       .  S
C24         C600   1.465       .  S
C25         C619   1.471       .  S
O26          H62   0.990       .  S
O27          C29   1.281       .  A
O28        Zr701   2.437       .  S
O28          C29   1.286       .  A
C29         C667   1.467       .  S
O30        Zr719   2.438       .  S
O30         H747   0.991       .  S
Zr31        O724   2.454   1_545  S
Zr31        O700   2.407   1_455  S
Zr31        O710   2.366   1_445  S
Zr31         O34   2.436       .  S
Zr31        O718   2.439       .  S
Zr31        O723   2.438   1_455  S
O32          C37   1.281       .  A
O33          H50   0.990       .  S
O33          H65   0.990       .  S
O34          H51   0.990       .  S
O35        Zr719   2.440       .  S
O35          H55   0.990       .  S
O35          H64   0.990       .  S
O36        Zr719   2.451   1_565  S
O36          C37   1.287       .  A
C37        C1371   1.472       .  S
O38          H57   0.990       .  S
O38         H749   0.990       .  S
O39          H53   0.990       .  S
O39          H60   0.990       .  S
O40          C44   1.285       .  A
O41          C44   1.283       .  A
O42          H52   0.990       .  S
O43         H744   0.990       .  S
C44         C651   1.465       .  S
H56         O731   0.990       .  S
H58         O690   0.990   1_556  S
H59         O718   0.990       .  S
H61         O726   0.990       .  S
H66         O690   0.990       .  S
C67          H68   1.107       .  S
C67          C72   1.534       .  S
C67         C761   1.542       .  S
C67         C759   1.537       .  S
C69          H70   1.110       .  S
C69          C74   1.536   1_655  S
C69         C763   1.540       .  S
C69         C764   1.539       .  S
C71         C755   1.536   1_455  S
C71          C74   1.378       .  D
C71         C571   1.490       .  S
C72          C75   1.377       .  D
C72         C552   1.481       .  S
C73         C755   1.539       .  S
C73         C764   1.382       .  D
C73         C632   1.486       .  S
C74         C523   1.478       .  S
C75         C757   1.540       .  S
C75         C536   1.492       .  S
C76         C757   1.538       .  S
C76         C761   1.380       .  D
C76         C584   1.486       .  S
Zr77         O79   2.403       .  S
Zr77         O80   2.428       .  S
Zr77        O771   2.448       .  S
Zr77         O85   2.382       .  S
Zr77         O87   2.407   1_554  S
Zr77        O774   2.378       .  S
Zr77        O776   2.395   1_554  S
Zr77        O766   2.435       .  S
O78        Zr765   2.435   1_556  S
O78         H822   0.990   1_556  S
O78         H830   0.990       .  S
O79          C99   1.279       .  A
O80         C101   1.283       .  A
O81         Zr91   2.419   1_554  S
O81         C100   1.282       .  A
O82         Zr90   2.415       .  S
O82         C101   1.281       .  A
O83        Zr765   2.454   1_455  S
O83         C100   1.290       .  A
O84         Zr92   2.453       .  S
O84          C99   1.287       .  A
O85         Zr90   2.377       .  S
O85         Zr92   2.366       .  S
O86         Zr91   2.377   1_554  S
O86        Zr765   2.382   1_455  S
O86        Zr780   2.366       .  S
O86         H121   0.966       .  S
O87         Zr90   2.402   1_556  S
O87        Zr107   2.401       .  S
O87         H124   0.967       .  S
O88         Zr91   2.391       .  S
O88        Zr765   2.394   1_456  S
O88        Zr795   2.406   1_455  S
Zr89        O108   2.423       .  S
Zr89        O104   2.441       .  S
Zr89        O804   2.428       .  S
Zr89         O96   2.405   1_556  S
Zr89         O97   2.369       .  S
Zr89        O783   2.404   1_556  S
Zr89        O786   2.376       .  S
Zr89        O802   2.435   1_556  S
Zr90        O103   2.415   1_554  S
Zr90         O96   2.388       .  S
Zr90         O97   2.379   1_554  S
Zr90        O109   2.438   1_554  S
Zr90        O102   2.436       .  S
Zr91        O117   2.399       .  S
Zr91         O95   2.394   1_556  S
Zr91         O98   2.380       .  S
Zr91         O93   2.434       .  S
Zr91        O115   2.437   1_556  S
Zr92         O96   2.406       .  S
Zr92        O774   2.365       .  S
Zr92        O783   2.408       .  S
Zr92         O94   2.440       .  S
Zr92        O806   2.437       .  S
Zr92        O807   2.434       .  S
O93         H130   0.990       .  S
O94         H125   0.990       .  S
O94         H139   0.990       .  S
O95        Zr777   2.404   1_554  S
O95        Zr780   2.405       .  S
O96         H122   0.965       .  S
O97        Zr107   2.364       .  S
O98        Zr777   2.377       .  S
O98        Zr795   2.368   1_455  S
O98         H123   0.965       .  S
C99         C507   1.466       .  S
C100        C472   1.472       .  S
C101        C488   1.455       .  S
O102        H138   0.990       .  S
O103        C105   1.281       .  A
O104        C105   1.287       .  A
C105        C459   1.467       .  S
O106       Zr795   2.438       .  S
O106        H823   0.990       .  S
Zr107       O112   2.450       .  S
Zr107       O776   2.408       .  S
Zr107       O786   2.371       .  S
Zr107       O110   2.439       .  S
Zr107       O794   2.438       .  S
Zr107       O799   2.438       .  S
O108        C113   1.283       .  A
O109        H126   0.991       .  S
O109        H141   0.990       .  S
O110        H127   0.990       .  S
O111       Zr795   2.440   1_455  S
O111        H131   0.990       .  S
O111        H140   0.990       .  S
O112        C113   1.287       .  A
C113        C587   1.473       .  S
O114       Zr777   2.435   1_554  S
O114        H133   0.990       .  S
O114        H825   0.990   1_455  S
O115        H129   0.990       .  S
O115        H136   0.990       .  S
O116       Zr777   2.437       .  S
O116        C120   1.287       .  A
O117        C120   1.278       .  A
O118       Zr780   2.438       .  S
O118        H128   0.990       .  S
O119       Zr780   2.436       .  S
O119        H820   0.990       .  S
C120        C443   1.456       .  S
H132        O807   0.990       .  S
H134        O766   0.990       .  S
H135        O794   0.991       .  S
H137        O802   0.990       .  S
H142        O766   0.990   1_556  S
C143        H144   1.109       .  S
C143        C148   1.531       .  S
C143        C837   1.537       .  S
C143        C835   1.532       .  S
C145        H146   1.111       .  S
C145        C150   1.536   1_655  S
C145        C839   1.538       .  S
C145        C840   1.546   1_655  S
C147        C831   1.530   1_455  S
C147        C150   1.374       .  D
C147        C424   1.474       .  S
C148        C151   1.375       .  D
C148        C411   1.471       .  S
C149        C831   1.535       .  S
C149        C840   1.382   1_655  D
C149        C680   1.487   1_655  S
C150        C379   1.487       .  S
C151        C833   1.539       .  S
C151        C395   1.491       .  S
C152        C833   1.545       .  S
C152        C837   1.383       .  D
C152        C504   1.478       .  S
Zr153       O155   2.410       .  S
Zr153       O156   2.428       .  S
Zr153       O159   2.437       .  S
Zr153       O161   2.373       .  S
Zr153       O162   2.381       .  S
Zr153       O163   2.408       .  S
Zr153       O164   2.402       .  S
Zr153       O154   2.438       .  S
O154        H210   0.991       .  S
O154        H218   0.990       .  S
O155        C175   1.280       .  A
O156        C177   1.284       .  A
O157       Zr167   2.431   1_545  S
O157        C176   1.284       .  A
O158       Zr166   2.417   1_545  S
O158        C177   1.281       .  A
O159        C176   1.287       .  A
O160       Zr168   2.448   1_545  S
O160        C175   1.286       .  A
O161       Zr166   2.373   1_545  S
O161       Zr168   2.365   1_545  S
O162       Zr167   2.379   1_545  S
O162       Zr168   2.361   1_545  S
O162        H197   0.966       .  S
O163       Zr166   2.399   1_545  S
O163       Zr183   2.406       .  S
O163        H200   0.964       .  S
O164       Zr167   2.399   1_545  S
O164       Zr183   2.411       .  S
Zr165       O184   2.412       .  S
Zr165       O192   2.422       .  S
Zr165       O180   2.438       .  S
Zr165       O171   2.401       .  S
Zr165       O172   2.403       .  S
Zr165       O173   2.371       .  S
Zr165       O174   2.379       .  S
Zr165       O190   2.436       .  S
Zr166       O179   2.411       .  S
Zr166       O172   2.394       .  S
Zr166       O173   2.378       .  S
Zr166       O185   2.440   1_565  S
Zr166       O178   2.436       .  S
Zr167       O193   2.425       .  S
Zr167       O171   2.396       .  S
Zr167       O174   2.380       .  S
Zr167       O169   2.436   1_565  S
Zr167       O191   2.435       .  S
Zr168       O171   2.402       .  S
Zr168       O172   2.407       .  S
Zr168       O194   2.436       .  S
Zr168       O195   2.434       .  S
Zr168       O170   2.436       .  S
O169        H206   0.990       .  S
O170        H201   0.990       .  S
O170        H215   0.990       .  S
O172        H198   0.966       .  S
O173       Zr183   2.366   1_565  S
O174       Zr183   2.364   1_565  S
O174        H199   0.964       .  S
C175        C360   1.466       .  S
C176        C555   1.470       .  S
C177        C568   1.463       .  S
O178        H214   0.990       .  S
O179        C181   1.281       .  A
O180        C181   1.286       .  A
C181        C427   1.464       .  S
O182       Zr183   2.439       .  S
O182        H211   0.990       .  S
Zr183       O188   2.459   1_545  S
Zr183       O186   2.438       .  S
Zr183       O187   2.440       .  S
O184        C189   1.281       .  A
O185        H202   0.990       .  S
O185        H217   0.990       .  S
O186        H203   0.990       .  S
O187        H207   0.990       .  S
O187        H216   0.990       .  S
O188        C189   1.289       .  A
C189        C344   1.474       .  S
O190        H209   0.990       .  S
O190        H213   0.990       .  S
O191        H205   0.990       .  S
O191        H212   0.990       .  S
O192        C196   1.283       .  A
O193        C196   1.283       .  A
O194        H204   0.990       .  S
O195        H208   0.990       .  S
C196        C408   1.459       .  S
C219        H220   1.109       .  S
C219        C225   1.542       .  S
C219        C224   1.535       .  S
C219        C223   1.536       .  S
C221        H222   1.107       .  S
C221        C227   1.540       .  S
C221        C226   1.533       .  S
C221        C228   1.547       .  S
C223        C226   1.372       .  D
C223        C491   1.481       .  S
C224        C227   1.379       .  D
C224        C475   1.483       .  S
C225        C228   1.384       .  D
C225        C328   1.496       .  S
C226        C648   1.482       .  S
C227        C664   1.492       .  S
C228        C347   1.488       .  S
Zr229       O231   2.418       .  S
Zr229       O232   2.453       .  S
Zr229       O235   2.447       .  S
Zr229       O237   2.375       .  S
Zr229       O238   2.382       .  S
Zr229       O239   2.409       .  S
Zr229       O240   2.408       .  S
Zr229       O230   2.438       .  S
O230        H286   0.990       .  S
O230        H294   0.990       .  S
O231        C251   1.283       .  A
O232        C253   1.289       .  A
O233       Zr243   2.423       .  S
O233        C252   1.283       .  A
O234       Zr242   2.411       .  S
O234        C253   1.280       .  A
O235        C252   1.287       .  A
O236       Zr244   2.464       .  S
O236        C251   1.289       .  A
O237       Zr242   2.378       .  S
O237       Zr244   2.362       .  S
O238       Zr243   2.382       .  S
O238       Zr244   2.360       .  S
O238        H273   0.965       .  S
O239       Zr242   2.399       .  S
O239       Zr259   2.409       .  S
O239        H276   0.965       .  S
O240       Zr243   2.396       .  S
O240       Zr259   2.411       .  S
Zr241       O260   2.410       .  S
Zr241       O268   2.448       .  S
Zr241       O256   2.441       .  S
Zr241       O247   2.405       .  S
Zr241       O248   2.406       .  S
Zr241       O249   2.372       .  S
Zr241       O250   2.380       .  S
Zr241       O266   2.435       .  S
Zr242       O255   2.423       .  S
Zr242       O248   2.392       .  S
Zr242       O249   2.374       .  S
Zr242       O261   2.438       .  S
Zr242       O254   2.436       .  S
Zr243       O269   2.424       .  S
Zr243       O247   2.394       .  S
Zr243       O250   2.384       .  S
Zr243       O245   2.438       .  S
Zr243       O267   2.435       .  S
Zr244       O247   2.413       .  S
Zr244       O248   2.408       .  S
Zr244       O270   2.435       .  S
Zr244       O271   2.435       .  S
Zr244       O246   2.434       .  S
O245        H282   0.990       .  S
O246        H277   0.990       .  S
O246        H291   0.990       .  S
O248        H274   0.967       .  S
O249       Zr259   2.366       .  S
O250       Zr259   2.364       .  S
O250        H275   0.965       .  S
C251        C331   1.481       .  S
C252        C376   1.464       .  S
C253        C392   1.469       .  S
O254        H290   0.990       .  S
O255        C257   1.283       .  A
O256        C257   1.287       .  A
C257        C539   1.471       .  S
O258       Zr259   2.439       .  S
O258        H287   0.990       .  S
Zr259       O264   2.468       .  S
Zr259       O262   2.437       .  S
Zr259       O263   2.441       .  S
O260        C265   1.281       .  A
O261        H278   0.990       .  S
O261        H293   0.990       .  S
O262        H279   0.990       .  S
O263        H283   0.989       .  S
O263        H292   0.990       .  S
O264        C265   1.291       .  A
C265        C312   1.478       .  S
O266        H285   0.990       .  S
O266        H289   0.990       .  S
O267        H281   0.990       .  S
O267        H288   0.990       .  S
O268        C272   1.289       .  A
O269        C272   1.283       .  A
O270        H280   0.990       .  S
O271        H284   0.990       .  S
C272        C520   1.470       .  S
C295        H296   1.106       .  S
C295        C301   1.538       .  S
C295        C300   1.538       .  S
C295        C299   1.528       .  S
C297        H298   1.110       .  S
C297        C303   1.535       .  S
C297        C302   1.540       .  S
C297        C304   1.539       .  S
C299        C302   1.374       .  D
C299        C456   1.478       .  S
C300        C303   1.378       .  D
C300        C440   1.485       .  S
C301        C304   1.381       .  D
C301        C315   1.487       .  S
C302        C603   1.483       .  S
C303        C616   1.485       .  S
C304        C363   1.483       .  S
C305        C310   1.381       .  A
C305        C306   1.405       .  A
C305        O311   1.324       .  A
C306        C307   1.405       .  A
C306        H317   1.082       .  S
C307        C316   1.360       .  A
C307        C308   1.379       .  A
C308        C309   1.403       .  A
C308        O314   1.321       .  A
C309        C310   1.405       .  A
C309        H318   1.082       .  S
C310        C313   1.360       .  A
O311        C312   1.332       .  A
C312        C313   1.394       .  A
C313        H319   1.083       .  S
O314        C315   1.331       .  A
C315        C316   1.394       .  A
C316        H320   1.082       .  S
C321        C326   1.378       .  A
C321        C322   1.404       .  A
C321        O327   1.322       .  A
C322        C323   1.405       .  A
C322        H333   1.082       .  S
C323        C332   1.359       .  A
C323        C324   1.380       .  A
C324        C325   1.407       .  A
C324        O330   1.326       .  A
C325        C326   1.408       .  A
C325        H334   1.082       .  S
C326        C329   1.363       .  A
O327        C328   1.332       .  A
C328        C329   1.397       .  A
C329        H335   1.082       .  S
O330        C331   1.334       .  A
C331        C332   1.393       .  A
C332        H336   1.083       .  S
C337        C342   1.381       .  A
C337        C338   1.402       .  A
C337        O343   1.321       .  A
C338        C339   1.403       .  A
C338        H349   1.082       .  S
C339        C348   1.358       .  A
C339        C340   1.378       .  A
C340        C341   1.404       .  A
C340        O346   1.320       .  A
C341        C342   1.405       .  A
C341        H350   1.082       .  S
C342        C345   1.360       .  A
O343        C344   1.330       .  A
C344        C345   1.394       .  A
C345        H351   1.083       .  S
O346        C347   1.332       .  A
C347        C348   1.394       .  A
C348        H352   1.082       .  S
C353        C358   1.381       .  A
C353        C354   1.402       .  A
C353        O359   1.316       .  A
C354        C355   1.401       .  A
C354        H365   1.082       .  S
C355        C364   1.361       .  A
C355        C356   1.379       .  A
C356        C357   1.406       .  A
C356        O362   1.319       .  A
C357        C358   1.404       .  A
C357        H366   1.082       .  S
C358        C361   1.365       .  A
O359        C360   1.330       .  A
C360        C361   1.391       .  A
C361        H367   1.082       .  S
O362        C363   1.333       .  A
C363        C364   1.392       .  A
C364        H368   1.082       .  S
C369        C374   1.382       .  A
C369        C370   1.402       .  A
C369        O375   1.322       .  A
C370        C371   1.404       .  A
C370        H381   1.082       .  S
C371        C380   1.355       .  A
C371        C372   1.379       .  A
C372        C373   1.401       .  A
C372        O378   1.321       .  A
C373        C374   1.403       .  A
C373        H382   1.082       .  S
C374        C377   1.356       .  A
O375        C376   1.330       .  A
C376        C377   1.389       .  A
C377        H383   1.083       .  S
O378        C379   1.331       .  A
C379        C380   1.395       .  A
C380        H384   1.081       .  S
C385        C390   1.380       .  A
C385        C386   1.406       .  A
C385        O391   1.316       .  A
C386        C387   1.404       .  A
C386        H397   1.082       .  S
C387        C396   1.368       .  A
C387        C388   1.378       .  A
C388        C389   1.404       .  A
C388        O394   1.314       .  A
C389        C390   1.401       .  A
C389        H398   1.082       .  S
C390        C393   1.365       .  A
O391        C392   1.332       .  A
C392        C393   1.391       .  A
C393        H399   1.082       .  S
O394        C395   1.329       .  A
C395        C396   1.394       .  A
C396        H400   1.082       .  S
C401        C406   1.381       .  A
C401        C402   1.400       .  A
C401        O407   1.315       .  A
C402        C403   1.399       .  A
C402        H413   1.083       .  S
C403        C412   1.358       .  A
C403        C404   1.381       .  A
C404        C405   1.402       .  A
C404        O410   1.317       .  A
C405        C406   1.401       .  A
C405        H414   1.082       .  S
C406        C409   1.360       .  A
O407        C408   1.329       .  A
C408        C409   1.390       .  A
C409        H415   1.083       .  S
O410        C411   1.329       .  A
C411        C412   1.389       .  A
C412        H416   1.083       .  S
C417        C422   1.381       .  A
C417        C418   1.402       .  A
C417        O423   1.315       .  A
C418        C419   1.400       .  A
C418        H429   1.082       .  S
C419        C428   1.363       .  A
C419        C420   1.380       .  A
C420        C421   1.402       .  A
C420        O426   1.314       .  A
C421        C422   1.399       .  A
C421        H430   1.082       .  S
C422        C425   1.362       .  A
O423        C424   1.330       .  A
C424        C425   1.389       .  A
C425        H431   1.083       .  S
O426        C427   1.330       .  A
C427        C428   1.391       .  A
C428        H432   1.083       .  S
C433        C438   1.377       .  A
C433        C434   1.398       .  A
C433        O439   1.308       .  A
C434        C435   1.395       .  A
C434        H445   1.083       .  S
C435        C444   1.359       .  A
C435        C436   1.381       .  A
C436        C437   1.403       .  A
C436        O442   1.313       .  A
C437        C438   1.400       .  A
C437        H446   1.082       .  S
C438        C441   1.361       .  A
O439        C440   1.327       .  A
C440        C441   1.395       .  A
C441        H447   1.081       .  S
O442        C443   1.330       .  A
C443        C444   1.386       .  A
C444        H448   1.082       .  S
C449        C454   1.380       .  A
C449        C450   1.405       .  A
C449        O455   1.318       .  A
C450        C451   1.403       .  A
C450        H461   1.082       .  S
C451        C460   1.364       .  A
C451        C452   1.380       .  A
C452        C453   1.402       .  A
C452        O458   1.316       .  A
C453        C454   1.400       .  A
C453        H462   1.082       .  S
C454        C457   1.362       .  A
O455        C456   1.331       .  A
C456        C457   1.388       .  A
C457        H463   1.083       .  S
O458        C459   1.330       .  A
C459        C460   1.392       .  A
C460        H464   1.083       .  S
C465        C470   1.380       .  A
C465        C466   1.405       .  A
C465        O471   1.318       .  A
C466        C467   1.403       .  A
C466        H477   1.082       .  S
C467        C476   1.364       .  A
C467        C468   1.379       .  A
C468        C469   1.404       .  A
C468        O474   1.317       .  A
C469        C470   1.403       .  A
C469        H478   1.082       .  S
C470        C473   1.365       .  A
O471        C472   1.333       .  A
C472        C473   1.392       .  A
C473        H479   1.082       .  S
O474        C475   1.330       .  A
C475        C476   1.390       .  A
C476        H480   1.083       .  S
C481        C486   1.382       .  A
C481        C482   1.402       .  A
C481        O487   1.319       .  A
C482        C483   1.403       .  A
C482        H493   1.082       .  S
C483        C492   1.358       .  A
C483        C484   1.380       .  A
C484        C485   1.399       .  A
C484        O490   1.317       .  A
C485        C486   1.398       .  A
C485        H494   1.082       .  S
C486        C489   1.355       .  A
O487        C488   1.329       .  A
C488        C489   1.387       .  A
C489        H495   1.083       .  S
O490        C491   1.328       .  A
C491        C492   1.395       .  A
C492        H496   1.082       .  S
C497        C498   1.404       .  A
C497       C1190   1.378   1_455  A
C497        O503   1.317       .  A
C498        C499   1.401       .  A
C498        H509   1.082       .  S
C499        C508   1.365       .  A
C499       C1188   1.380   1_455  A
C500        C501   1.401       .  A
C500       C1187   1.380       .  A
C500        O506   1.314       .  A
C501        C502   1.399       .  A
C501        H510   1.082       .  S
C502        C505   1.360       .  A
C502       C1185   1.379       .  A
O503       C1192   1.332       .  A
C504        C505   1.391       .  A
C504       O1191   1.332       .  A
C505        H511   1.082       .  S
O506        C507   1.330       .  A
C507       C1196   1.391       .  A
C508       C1195   1.389   1_455  A
C508        H512   1.082       .  S
C513        C518   1.380       .  A
C513        C514   1.405       .  A
C513        O519   1.318       .  A
C514        C515   1.402       .  A
C514        H525   1.082       .  S
C515        C524   1.364       .  A
C515        C516   1.380       .  A
C516        C517   1.403       .  A
C516        O522   1.315       .  A
C517        C518   1.401       .  A
C517        H526   1.082       .  S
C518        C521   1.363       .  A
O519        C520   1.332       .  A
C520        C521   1.392       .  A
C521        H527   1.083       .  S
O522        C523   1.329       .  A
C523        C524   1.390       .  A
C524        H528   1.082       .  S
C529        C534   1.376       .  A
C529        C530   1.403       .  A
C529        O535   1.312       .  A
C530        C531   1.400       .  A
C530        H541   1.083       .  S
C531        C540   1.364       .  A
C531        C532   1.380       .  A
C532        C533   1.406       .  A
C532        O538   1.317       .  A
C533        C534   1.403       .  A
C533        H542   1.082       .  S
C534        C537   1.366       .  A
O535        C536   1.328       .  A
C536        C537   1.395       .  A
C537        H543   1.082       .  S
O538        C539   1.332       .  A
C539        C540   1.392       .  A
C540        H544   1.083       .  S
C545        C550   1.380       .  A
C545        C546   1.402       .  A
C545        O551   1.316       .  A
C546        C547   1.401       .  A
C546        H557   1.082       .  S
C547        C556   1.362       .  A
C547        C548   1.380       .  A
C548        C549   1.405       .  A
C548        O554   1.318       .  A
C549        C550   1.404       .  A
C549        H558   1.082       .  S
C550        C553   1.365       .  A
O551        C552   1.329       .  A
C552        C553   1.391       .  A
C553        H559   1.082       .  S
O554        C555   1.332       .  A
C555        C556   1.391       .  A
C556        H560   1.083       .  S
C561        C566   1.381       .  A
C561        C562   1.403       .  A
C561        O567   1.315       .  A
C562        C563   1.401       .  A
C562        H573   1.082       .  S
C563        C572   1.362       .  A
C563        C564   1.377       .  A
C564        C565   1.401       .  A
C564        O570   1.313       .  A
C565        C566   1.399       .  A
C565        H574   1.083       .  S
C566        C569   1.360       .  A
O567        C568   1.331       .  A
C568        C569   1.389       .  A
C569        H575   1.083       .  S
O570        C571   1.329       .  A
C571        C572   1.394       .  A
C572        H576   1.081       .  S
C577        C578   1.406       .  A
C577       C1270   1.379       .  A
C577        O583   1.319       .  A
C578        C579   1.404       .  A
C578        H589   1.082       .  S
C579        C588   1.366       .  A
C579       C1268   1.380       .  A
C580        C581   1.402       .  A
C580       C1267   1.380   1_455  A
C580        O586   1.317       .  A
C581        C582   1.401       .  A
C581        H590   1.082       .  S
C582        C585   1.360       .  A
C582       C1265   1.379   1_455  A
O583        C584   1.332       .  A
C584       C1273   1.394       .  A
C585       C1272   1.392   1_455  A
C585        H591   1.082       .  S
O586       C1275   1.330       .  A
C587        C588   1.392       .  A
C587       O1274   1.331       .  A
C588        H592   1.082       .  S
C593        C598   1.381       .  A
C593        C594   1.402       .  A
C593        O599   1.314       .  A
C594        C595   1.399       .  A
C594        H605   1.082       .  S
C595        C604   1.362       .  A
C595        C596   1.377       .  A
C596        C597   1.402       .  A
C596        O602   1.311       .  A
C597        C598   1.400       .  A
C597        H606   1.083       .  S
C598        C601   1.363       .  A
O599        C600   1.330       .  A
C600        C601   1.392       .  A
C601        H607   1.083       .  S
O602        C603   1.329       .  A
C603        C604   1.392       .  A
C604        H608   1.081       .  S
C609        C614   1.379       .  A
C609        C610   1.405       .  A
C609        O615   1.318       .  A
C610        C611   1.402       .  A
C610        H621   1.082       .  S
C611        C620   1.365       .  A
C611        C612   1.380       .  A
C612        C613   1.405       .  A
C612        O618   1.318       .  A
C613        C614   1.403       .  A
C613        H622   1.082       .  S
C614        C617   1.365       .  A
O615        C616   1.332       .  A
C616        C617   1.391       .  A
C617        H623   1.081       .  S
O618        C619   1.332       .  A
C619        C620   1.391       .  A
C620        H624   1.083       .  S
C625        C626   1.401       .  A
C625       C1318   1.379   1_655  A
C625        O631   1.319       .  A
C626        C627   1.402       .  A
C626        H637   1.082       .  S
C627        C636   1.356       .  A
C627       C1316   1.381   1_655  A
C628        C629   1.401       .  A
C628       C1315   1.381       .  A
C628        O634   1.320       .  A
C629        C630   1.402       .  A
C629        H638   1.082       .  S
C630        C633   1.358       .  A
C630       C1313   1.379       .  A
O631        C632   1.331       .  A
C632       C1321   1.394   1_655  A
C633       C1320   1.393       .  A
C633        H639   1.082       .  S
O634       C1323   1.329       .  A
C635        C636   1.392       .  A
C635       O1322   1.330   1_655  A
C636        H640   1.083       .  S
C641        C646   1.379       .  A
C641        C642   1.405       .  A
C641        O647   1.318       .  A
C642        C643   1.403       .  A
C642        H653   1.082       .  S
C643        C652   1.363       .  A
C643        C644   1.380       .  A
C644        C645   1.401       .  A
C644        O650   1.315       .  A
C645        C646   1.400       .  A
C645        H654   1.082       .  S
C646        C649   1.361       .  A
O647        C648   1.332       .  A
C648        C649   1.389       .  A
C649        H655   1.080       .  S
O650        C651   1.329       .  A
C651        C652   1.392       .  A
C652        H656   1.083       .  S
C657        C662   1.377       .  A
C657        C658   1.402       .  A
C657        O663   1.313       .  A
C658        C659   1.399       .  A
C658        H669   1.082       .  S
C659        C668   1.362       .  A
C659        C660   1.380       .  A
C660        C661   1.405       .  A
C660        O666   1.317       .  A
C661        C662   1.403       .  A
C661        H670   1.082       .  S
C662        C665   1.364       .  A
O663        C664   1.328       .  A
C664        C665   1.396       .  A
C665        H671   1.080       .  S
O666        C667   1.332       .  A
C667        C668   1.390       .  A
C668        H672   1.082       .  S
C673        C674   1.406       .  A
C673       C1366   1.379       .  A
C673        O679   1.324       .  A
C674        C675   1.406       .  A
C674        H685   1.082       .  S
C675        C684   1.361       .  A
C675       C1364   1.381       .  A
C676        C677   1.404       .  A
C676       C1363   1.381   1_655  A
C676        O682   1.322       .  A
C677        C678   1.404       .  A
C677        H686   1.082       .  S
C678        C681   1.360       .  A
C678       C1361   1.379   1_655  A
O679       C1368   1.334       .  A
C680        C681   1.394   1_455  A
C680       O1367   1.332       .  A
C681        H687   1.082       .  S
O682        C683   1.330   1_655  A
C683        C725   1.471       .  S
C683       C1372   1.393       .  A
C684       C1371   1.393       .  A
C684        H688   1.083       .  S
Zr689       O691   2.398       .  S
Zr689       O692   2.448       .  S
Zr689       O697   2.374       .  S
Zr689       O699   2.403   1_556  S
O691        C711   1.279       .  A
O692        C713   1.288       .  A
O693       Zr703   2.431       .  S
O693        C712   1.285       .  A
O694       Zr702   2.421       .  S
O694        C713   1.282       .  A
O695        C712   1.287       .  A
O696        C711   1.287       .  A
O697       Zr702   2.376       .  S
O698       Zr703   2.381       .  S
O698       Zr704   2.367   1_645  S
O698        H733   0.965       .  S
O699       Zr702   2.402   1_554  S
O699       Zr719   2.409       .  S
O699        H736   0.966       .  S
O700       Zr703   2.395   1_554  S
Zr701       O720   2.410       .  S
Zr701       O728   2.440   1_455  S
Zr701       O707   2.402   1_454  S
Zr701       O710   2.382   1_455  S
Zr701       O726   2.436   1_554  S
Zr702       O715   2.418   1_546  S
Zr702       O708   2.397   1_545  S
Zr702       O709   2.377   1_546  S
Zr702       O721   2.437   1_556  S
Zr702       O714   2.437   1_545  S
Zr703       O729   2.424   1_546  S
Zr703       O707   2.399   1_545  S
Zr703       O710   2.382   1_546  S
Zr703       O705   2.437   1_556  S
Zr703       O727   2.438   1_545  S
Zr704       O707   2.410   1_455  S
Zr704       O730   2.435   1_455  S
Zr704       O731   2.435       .  S
O705        H742   0.990       .  S
O706        H737   0.990       .  S
O706        H751   0.990       .  S
O708        H734   0.967       .  S
O709       Zr719   2.366   1_565  S
O710        H735   0.964       .  S
C711       C1323   1.465       .  S
C712       C1288   1.471       .  S
C713       C1307   1.473       .  S
O714        H750   0.990       .  S
O715        C717   1.282       .  A
O716        C717   1.286       .  A
C717       C1355   1.466       .  S
Zr719       O722   2.435       .  S
O720        C725   1.281       .  A
O721        H738   0.990       .  S
O721        H753   0.990       .  S
O722        H739   0.990       .  S
O723        H743   0.990       .  S
O723        H752   0.990       .  S
O724        C725   1.288       .  A
O726        H745   0.990   1_455  S
O727        H741   0.990       .  S
O727        H748   0.990       .  S
O728        C732   1.287       .  A
O729        C732   1.283       .  A
O730        H740   0.990       .  S
C732       C1339   1.467       .  S
C755        H756   1.107       .  S
C755        C760   1.531       .  S
C757        H758   1.110       .  S
C757        C762   1.535       .  S
C759        C762   1.376       .  D
C759       C1259   1.491       .  S
C760        C763   1.376       .  D
C760       C1240   1.481       .  S
C761       C1320   1.484       .  S
C762       C1211   1.473       .  S
C763       C1224   1.487       .  S
C764       C1272   1.486       .  S
Zr765       O767   2.390       .  S
Zr765       O768   2.436       .  S
Zr765       O773   2.379       .  S
Zr765       O775   2.400   1_554  S
O767        C787   1.277       .  A
O768        C789   1.285       .  A
O769       Zr779   2.426   1_554  S
O769        C788   1.283       .  A
O770       Zr778   2.423       .  S
O770        C789   1.283       .  A
O771        C788   1.288       .  A
O772       Zr780   2.455       .  S
O772        C787   1.288   1_455  A
O773       Zr778   2.376       .  S
O773       Zr780   2.363   1_655  S
O774       Zr779   2.380   1_554  S
O774        H809   0.966       .  S
O775       Zr778   2.400   1_556  S
O775       Zr795   2.398       .  S
O775        H812   0.966       .  S
O776       Zr779   2.394       .  S
Zr777       O796   2.421       .  S
Zr777       O792   2.442   1_455  S
Zr777       O784   2.408   1_456  S
Zr777       O785   2.369   1_455  S
Zr778       O791   2.425   1_554  S
Zr778       O784   2.394       .  S
Zr778       O785   2.375   1_554  S
Zr778       O797   2.439   1_554  S
Zr778       O790   2.435       .  S
Zr779       O805   2.417       .  S
Zr779       O783   2.395   1_556  S
Zr779       O786   2.381       .  S
Zr779       O781   2.436       .  S
Zr779       O803   2.438   1_556  S
Zr780       O784   2.406   1_455  S
Zr780       O782   2.435   1_455  S
O781        H818   0.990       .  S
O782        H813   0.990       .  S
O782        H827   0.990       .  S
O784        H810   0.966       .  S
O785       Zr795   2.364       .  S
O786        H811   0.965       .  S
C787       C1195   1.463       .  S
C788       C1160   1.472       .  S
C789       C1176   1.460       .  S
O790        H826   0.990       .  S
O791        C793   1.283       .  A
O792        C793   1.287       .  A
C793       C1147   1.471       .  S
Zr795       O800   2.441       .  S
Zr795       O798   2.436       .  S
O796        C801   1.283       .  A
O797        H814   0.990       .  S
O797        H829   0.990       .  S
O798        H815   0.990       .  S
O799        H819   0.990       .  S
O799        H828   0.990       .  S
O800        C801   1.286   1_655  A
C801       C1275   1.470       .  S
O802        H821   0.990       .  S
O803        H817   0.990       .  S
O803        H824   0.990       .  S
O804        C808   1.285       .  A
O805        C808   1.282       .  A
O806        H816   0.990       .  S
C808       C1131   1.460       .  S
C831        H832   1.110       .  S
C831        C836   1.528       .  S
C833        H834   1.111       .  S
C833        C838   1.535       .  S
C835        C838   1.374       .  D
C835       C1112   1.476       .  S
C836        C839   1.375       .  D
C836       C1099   1.470       .  S
C837       C1368   1.493       .  S
C838       C1067   1.487       .  S
C839       C1083   1.487       .  S
C840       C1192   1.483       .  S
Zr841       O843   2.407       .  S
Zr841       O844   2.437       .  S
Zr841       O847   2.434       .  S
Zr841       O849   2.375       .  S
Zr841       O850   2.381       .  S
Zr841       O851   2.403       .  S
Zr841       O852   2.401       .  S
Zr841       O842   2.435       .  S
O842        H898   0.990       .  S
O842        H906   0.990       .  S
O843        C863   1.280       .  A
O844        C865   1.286       .  A
O845       Zr855   2.428   1_545  S
O845        C864   1.284       .  A
O846       Zr854   2.417   1_545  S
O846        C865   1.282       .  A
O847        C864   1.286       .  A
O848       Zr856   2.446   1_545  S
O848        C863   1.286       .  A
O849       Zr854   2.372   1_545  S
O849       Zr856   2.367   1_545  S
O850       Zr855   2.379   1_545  S
O850       Zr856   2.362   1_545  S
O850        H885   0.966       .  S
O851       Zr854   2.393   1_545  S
O851       Zr871   2.405       .  S
O851        H888   0.964       .  S
O852       Zr855   2.397   1_545  S
O852       Zr871   2.410       .  S
Zr853       O872   2.407       .  S
Zr853       O880   2.429       .  S
Zr853       O868   2.449       .  S
Zr853       O859   2.403       .  S
Zr853       O860   2.402       .  S
Zr853       O861   2.371       .  S
Zr853       O862   2.379       .  S
Zr853       O878   2.435       .  S
Zr854       O867   2.406       .  S
Zr854       O860   2.394       .  S
Zr854       O861   2.380       .  S
Zr854       O873   2.434   1_565  S
Zr854       O866   2.435       .  S
Zr855       O881   2.425       .  S
Zr855       O859   2.396       .  S
Zr855       O862   2.383       .  S
Zr855       O857   2.435   1_565  S
Zr855       O879   2.438       .  S
Zr856       O859   2.405       .  S
Zr856       O860   2.403       .  S
Zr856       O882   2.435       .  S
Zr856       O883   2.435       .  S
Zr856       O858   2.437       .  S
O857        H894   0.990       .  S
O858        H889   0.990       .  S
O858        H903   0.990       .  S
O860        H886   0.966       .  S
O861       Zr871   2.365   1_565  S
O862       Zr871   2.365   1_565  S
O862        H887   0.965       .  S
C863       C1048   1.465       .  S
C864       C1243   1.467       .  S
C865       C1256   1.467       .  S
O866        H902   0.989       .  S
O867        C869   1.280       .  A
O868        C869   1.288       .  A
C869       C1115   1.467       .  S
O870       Zr871   2.438       .  S
O870        H899   0.990       .  S
Zr871       O876   2.451   1_545  S
Zr871       O874   2.439       .  S
Zr871       O875   2.438       .  S
O872        C877   1.280       .  A
O873        H890   0.990       .  S
O873        H905   0.991       .  S
O874        H891   0.990       .  S
O875        H895   0.990       .  S
O875        H904   0.990       .  S
O876        C877   1.286       .  A
C877       C1032   1.469       .  S
O878        H897   0.990       .  S
O878        H901   0.990       .  S
O879        H893   0.990       .  S
O879        H900   0.990       .  S
O880        C884   1.284       .  A
O881        C884   1.284       .  A
O882        H892   0.990       .  S
O883        H896   0.990       .  S
C884       C1096   1.461       .  S
C907        H908   1.109       .  S
C907        C913   1.542       .  S
C907        C912   1.535       .  S
C907        C911   1.533       .  S
C909        H910   1.107       .  S
C909        C915   1.537       .  S
C909        C914   1.533       .  S
C909        C916   1.543       .  S
C911        C914   1.372       .  D
C911       C1179   1.478       .  S
C912        C915   1.375       .  D
C912       C1163   1.480       .  S
C913        C916   1.384       .  D
C913       C1016   1.491       .  S
C914       C1336   1.480       .  S
C915       C1352   1.487       .  S
C916       C1035   1.487       .  S
Zr917       O919   2.403       .  S
Zr917       O920   2.462       .  S
Zr917       O923   2.451       .  S
Zr917       O925   2.375       .  S
Zr917       O926   2.383       .  S
Zr917       O927   2.408       .  S
Zr917       O928   2.411       .  S
Zr917       O918   2.436       .  S
O918        H974   0.991       .  S
O918        H982   0.990       .  S
O919        C939   1.280       .  A
O920        C941   1.291       .  A
O921       Zr931   2.421       .  S
O921        C940   1.282       .  A
O922       Zr930   2.412       .  S
O922        C941   1.281       .  A
O923        C940   1.288       .  A
O924       Zr932   2.468       .  S
O924        C939   1.289       .  A
O925       Zr930   2.381       .  S
O925       Zr932   2.364       .  S
O926       Zr931   2.387       .  S
O926       Zr932   2.355       .  S
O926        H961   0.965       .  S
O927       Zr930   2.397       .  S
O927       Zr947   2.409       .  S
O927        H964   0.966       .  S
O928       Zr931   2.403       .  S
O928       Zr947   2.410       .  S
Zr929       O948   2.411       .  S
Zr929       O956   2.446       .  S
Zr929       O944   2.435       .  S
Zr929       O935   2.405       .  S
Zr929       O936   2.406       .  S
Zr929       O937   2.372       .  S
Zr929       O938   2.378       .  S
Zr929       O954   2.437       .  S
Zr930       O943   2.415       .  S
Zr930       O936   2.395       .  S
Zr930       O937   2.374       .  S
Zr930       O949   2.438       .  S
Zr930       O942   2.435       .  S
Zr931       O957   2.439       .  S
Zr931       O935   2.394       .  S
Zr931       O938   2.382       .  S
Zr931       O933   2.436       .  S
Zr931       O955   2.436       .  S
Zr932       O935   2.416       .  S
Zr932       O936   2.406       .  S
Zr932       O958   2.437       .  S
Zr932       O959   2.433       .  S
Zr932       O934   2.433       .  S
O933        H970   0.990       .  S
O934        H965   0.990       .  S
O934        H979   0.990       .  S
O936        H962   0.967       .  S
O937       Zr947   2.364       .  S
O938       Zr947   2.361       .  S
O938        H963   0.964       .  S
C939       C1019   1.477       .  S
C940       C1064   1.463       .  S
C941       C1080   1.474       .  S
O942        H978   0.990       .  S
O943        C945   1.282       .  A
O944        C945   1.286       .  A
C945       C1227   1.464       .  S
O946       Zr947   2.436       .  S
O946        H975   0.990       .  S
Zr947       O952   2.462       .  S
Zr947       O950   2.435       .  S
Zr947       O951   2.439       .  S
O948        C953   1.281       .  A
O949        H966   0.989       .  S
O949        H981   0.990       .  S
O950        H967   0.990       .  S
O951        H971   0.990       .  S
O951        H980   0.990       .  S
O952        C953   1.289       .  A
C953       C1000   1.476       .  S
O954        H973   0.990       .  S
O954        H977   0.990       .  S
O955        H969   0.990       .  S
O955        H976   0.990       .  S
O956        C960   1.288       .  A
O957        C960   1.286       .  A
O958        H968   0.990       .  S
O959        H972   0.990       .  S
C960       C1208   1.473       .  S
C983        H984   1.107       .  S
C983        C989   1.539       .  S
C983        C988   1.537       .  S
C983        C987   1.528       .  S
C985        H986   1.110       .  S
C985        C991   1.534       .  S
C985        C990   1.541       .  S
C985        C992   1.541       .  S
C987        C990   1.373       .  D
C987       C1144   1.480       .  S
C988        C991   1.378       .  D
C988       C1128   1.483       .  S
C989        C992   1.383       .  D
C989       C1003   1.488       .  S
C990       C1291   1.484       .  S
C991       C1304   1.485       .  S
C992       C1051   1.486       .  S
C993        C998   1.381       .  A
C993        C994   1.405       .  A
C993        O999   1.324       .  A
C994        C995   1.406       .  A
C994       H1005   1.082       .  S
C995       C1004   1.359       .  A
C995        C996   1.379       .  A
C996        C997   1.402       .  A
C996       O1002   1.321       .  A
C997        C998   1.404       .  A
C997       H1006   1.082       .  S
C998       C1001   1.358       .  A
O999       C1000   1.332       .  A
C1000      C1001   1.393       .  A
C1001      H1007   1.083       .  S
O1002      C1003   1.331       .  A
C1003      C1004   1.394       .  A
C1004      H1008   1.082       .  S
C1009      C1014   1.378       .  A
C1009      C1010   1.401       .  A
C1009      O1015   1.319       .  A
C1010      C1011   1.402       .  A
C1010      H1021   1.082       .  S
C1011      C1020   1.356       .  A
C1011      C1012   1.380       .  A
C1012      C1013   1.406       .  A
C1012      O1018   1.325       .  A
C1013      C1014   1.406       .  A
C1013      H1022   1.082       .  S
C1014      C1017   1.361       .  A
O1015      C1016   1.330       .  A
C1016      C1017   1.396       .  A
C1017      H1023   1.082       .  S
O1018      C1019   1.333       .  A
C1019      C1020   1.393       .  A
C1020      H1024   1.083       .  S
C1025      C1030   1.381       .  A
C1025      C1026   1.403       .  A
C1025      O1031   1.322       .  A
C1026      C1027   1.403       .  A
C1026      H1037   1.082       .  S
C1027      C1036   1.358       .  A
C1027      C1028   1.379       .  A
C1028      C1029   1.401       .  A
C1028      O1034   1.319       .  A
C1029      C1030   1.402       .  A
C1029      H1038   1.083       .  S
C1030      C1033   1.356       .  A
O1031      C1032   1.331       .  A
C1032      C1033   1.392       .  A
C1033      H1039   1.083       .  S
O1034      C1035   1.330       .  A
C1035      C1036   1.394       .  A
C1036      H1040   1.082       .  S
C1041      C1046   1.381       .  A
C1041      C1042   1.401       .  A
C1041      O1047   1.315       .  A
C1042      C1043   1.400       .  A
C1042      H1053   1.082       .  S
C1043      C1052   1.360       .  A
C1043      C1044   1.378       .  A
C1044      C1045   1.406       .  A
C1044      O1050   1.319       .  A
C1045      C1046   1.404       .  A
C1045      H1054   1.082       .  S
C1046      C1049   1.365       .  A
O1047      C1048   1.329       .  A
C1048      C1049   1.391       .  A
C1049      H1055   1.082       .  S
O1050      C1051   1.334       .  A
C1051      C1052   1.392       .  A
C1052      H1056   1.081       .  S
C1057      C1062   1.382       .  A
C1057      C1058   1.401       .  A
C1057      O1063   1.321       .  A
C1058      C1059   1.402       .  A
C1058      H1069   1.082       .  S
C1059      C1068   1.356       .  A
C1059      C1060   1.379       .  A
C1060      C1061   1.404       .  A
C1060      O1066   1.322       .  A
C1061      C1062   1.405       .  A
C1061      H1070   1.082       .  S
C1062      C1065   1.359       .  A
O1063      C1064   1.328       .  A
C1064      C1065   1.392       .  A
C1065      H1071   1.083       .  S
O1066      C1067   1.332       .  A
C1067      C1068   1.394       .  A
C1068      H1072   1.082       .  S
C1073      C1078   1.380       .  A
C1073      C1074   1.407       .  A
C1073      O1079   1.318       .  A
C1074      C1075   1.404       .  A
C1074      H1085   1.082       .  S
C1075      C1084   1.367       .  A
C1075      C1076   1.378       .  A
C1076      C1077   1.403       .  A
C1076      O1082   1.313       .  A
C1077      C1078   1.400       .  A
C1077      H1086   1.082       .  S
C1078      C1081   1.364       .  A
O1079      C1080   1.333       .  A
C1080      C1081   1.391       .  A
C1081      H1087   1.082       .  S
O1082      C1083   1.328       .  A
C1083      C1084   1.393       .  A
C1084      H1088   1.082       .  S
C1089      C1094   1.381       .  A
C1089      C1090   1.400       .  A
C1089      O1095   1.315       .  A
C1090      C1091   1.399       .  A
C1090      H1101   1.082       .  S
C1091      C1100   1.357       .  A
C1091      C1092   1.381       .  A
C1092      C1093   1.402       .  A
C1092      O1098   1.317       .  A
C1093      C1094   1.401       .  A
C1093      H1102   1.082       .  S
C1094      C1097   1.360       .  A
O1095      C1096   1.329       .  A
C1096      C1097   1.391       .  A
C1097      H1103   1.083       .  S
O1098      C1099   1.329       .  A
C1099      C1100   1.388       .  A
C1100      H1104   1.083       .  S
C1105      C1110   1.380       .  A
C1105      C1106   1.403       .  A
C1105      O1111   1.316       .  A
C1106      C1107   1.402       .  A
C1106      H1117   1.082       .  S
C1107      C1116   1.364       .  A
C1107      C1108   1.380       .  A
C1108      C1109   1.402       .  A
C1108      O1114   1.314       .  A
C1109      C1110   1.399       .  A
C1109      H1118   1.082       .  S
C1110      C1113   1.361       .  A
O1111      C1112   1.331       .  A
C1112      C1113   1.389       .  A
C1113      H1119   1.082       .  S
O1114      C1115   1.331       .  A
C1115      C1116   1.391       .  A
C1116      H1120   1.082       .  S
C1121      C1126   1.377       .  A
C1121      C1122   1.397       .  A
C1121      O1127   1.307       .  A
C1122      C1123   1.395       .  A
C1122      H1133   1.083       .  S
C1123      C1132   1.358       .  A
C1123      C1124   1.381       .  A
C1124      C1125   1.403       .  A
C1124      O1130   1.314       .  A
C1125      C1126   1.400       .  A
C1125      H1134   1.082       .  S
C1126      C1129   1.362       .  A
O1127      C1128   1.325       .  A
C1128      C1129   1.395       .  A
C1129      H1135   1.081       .  S
O1130      C1131   1.330       .  A
C1131      C1132   1.388       .  A
C1132      H1136   1.083       .  S
C1137      C1142   1.380       .  A
C1137      C1138   1.406       .  A
C1137      O1143   1.318       .  A
C1138      C1139   1.404       .  A
C1138      H1149   1.082       .  S
C1139      C1148   1.366       .  A
C1139      C1140   1.380       .  A
C1140      C1141   1.404       .  A
C1140      O1146   1.317       .  A
C1141      C1142   1.402       .  A
C1141      H1150   1.082       .  S
C1142      C1145   1.364       .  A
O1143      C1144   1.331       .  A
C1144      C1145   1.390       .  A
C1145      H1151   1.083       .  S
O1146      C1147   1.331       .  A
C1147      C1148   1.393       .  A
C1148      H1152   1.083       .  S
C1153      C1158   1.380       .  A
C1153      C1154   1.405       .  A
C1153      O1159   1.318       .  A
C1154      C1155   1.402       .  A
C1154      H1165   1.082       .  S
C1155      C1164   1.364       .  A
C1155      C1156   1.380       .  A
C1156      C1157   1.404       .  A
C1156      O1162   1.317       .  A
C1157      C1158   1.403       .  A
C1157      H1166   1.082       .  S
C1158      C1161   1.365       .  A
O1159      C1160   1.332       .  A
C1160      C1161   1.393       .  A
C1161      H1167   1.083       .  S
O1162      C1163   1.331       .  A
C1163      C1164   1.390       .  A
C1164      H1168   1.083       .  S
C1169      C1174   1.382       .  A
C1169      C1170   1.401       .  A
C1169      O1175   1.318       .  A
C1170      C1171   1.400       .  A
C1170      H1181   1.082       .  S
C1171      C1180   1.355       .  A
C1171      C1172   1.379       .  A
C1172      C1173   1.400       .  A
C1172      O1178   1.317       .  A
C1173      C1174   1.401       .  A
C1173      H1182   1.082       .  S
C1174      C1177   1.358       .  A
O1175      C1176   1.329       .  A
C1176      C1177   1.389       .  A
C1177      H1183   1.083       .  S
O1178      C1179   1.330       .  A
C1179      C1180   1.393       .  A
C1180      H1184   1.082       .  S
C1185      C1186   1.405       .  A
C1185      O1191   1.317       .  A
C1186      C1187   1.403       .  A
C1186      H1197   1.082       .  S
C1187      C1196   1.366       .  A
C1188      C1189   1.401       .  A
C1188      O1194   1.313       .  A
C1189      C1190   1.399       .  A
C1189      H1198   1.083       .  S
C1190      C1193   1.360       .  A
C1192      C1193   1.393   1_455  A
C1193      H1199   1.081       .  S
O1194      C1195   1.330       .  A
C1196      H1200   1.082       .  S
C1201      C1206   1.380       .  A
C1201      C1202   1.404       .  A
C1201      O1207   1.318       .  A
C1202      C1203   1.401       .  A
C1202      H1213   1.082       .  S
C1203      C1212   1.362       .  A
C1203      C1204   1.380       .  A
C1204      C1205   1.403       .  A
C1204      O1210   1.317       .  A
C1205      C1206   1.403       .  A
C1205      H1214   1.082       .  S
C1206      C1209   1.364       .  A
O1207      C1208   1.331       .  A
C1208      C1209   1.393       .  A
C1209      H1215   1.083       .  S
O1210      C1211   1.330       .  A
C1211      C1212   1.388       .  A
C1212      H1216   1.082       .  S
C1217      C1222   1.377       .  A
C1217      C1218   1.401       .  A
C1217      O1223   1.311       .  A
C1218      C1219   1.399       .  A
C1218      H1229   1.083       .  S
C1219      C1228   1.361       .  A
C1219      C1220   1.381       .  A
C1220      C1221   1.403       .  A
C1220      O1226   1.315       .  A
C1221      C1222   1.400       .  A
C1221      H1230   1.082       .  S
C1222      C1225   1.363       .  A
O1223      C1224   1.328       .  A
C1224      C1225   1.393       .  A
C1225      H1231   1.081       .  S
O1226      C1227   1.330       .  A
C1227      C1228   1.390       .  A
C1228      H1232   1.083       .  S
C1233      C1238   1.380       .  A
C1233      C1234   1.403       .  A
C1233      O1239   1.316       .  A
C1234      C1235   1.401       .  A
C1234      H1245   1.082       .  S
C1235      C1244   1.361       .  A
C1235      C1236   1.380       .  A
C1236      C1237   1.403       .  A
C1236      O1242   1.318       .  A
C1237      C1238   1.402       .  A
C1237      H1246   1.082       .  S
C1238      C1241   1.362       .  A
O1239      C1240   1.330       .  A
C1240      C1241   1.390       .  A
C1241      H1247   1.081       .  S
O1242      C1243   1.331       .  A
C1243      C1244   1.391       .  A
C1244      H1248   1.083       .  S
C1249      C1254   1.380       .  A
C1249      C1250   1.403       .  A
C1249      O1255   1.316       .  A
C1250      C1251   1.401       .  A
C1250      H1261   1.082       .  S
C1251      C1260   1.362       .  A
C1251      C1252   1.377       .  A
C1252      C1253   1.403       .  A
C1252      O1258   1.315       .  A
C1253      C1254   1.401       .  A
C1253      H1262   1.082       .  S
C1254      C1257   1.363       .  A
O1255      C1256   1.331       .  A
C1256      C1257   1.391       .  A
C1257      H1263   1.082       .  S
O1258      C1259   1.330       .  A
C1259      C1260   1.395       .  A
C1260      H1264   1.081       .  S
C1265      C1266   1.407       .  A
C1265      O1271   1.321       .  A
C1266      C1267   1.406       .  A
C1266      H1277   1.082       .  S
C1267      C1276   1.366       .  A
C1268      C1269   1.404       .  A
C1268      O1274   1.318       .  A
C1269      C1270   1.403       .  A
C1269      H1278   1.082       .  S
C1270      C1273   1.363       .  A
O1271      C1272   1.334       .  A
C1273      H1279   1.082       .  S
C1275      C1276   1.393   1_455  A
C1276      H1280   1.082       .  S
C1281      C1286   1.380       .  A
C1281      C1282   1.403       .  A
C1281      O1287   1.316       .  A
C1282      C1283   1.400       .  A
C1282      H1293   1.082       .  S
C1283      C1292   1.362       .  A
C1283      C1284   1.377       .  A
C1284      C1285   1.402       .  A
C1284      O1290   1.312       .  A
C1285      C1286   1.401       .  A
C1285      H1294   1.083       .  S
C1286      C1289   1.364       .  A
O1287      C1288   1.331       .  A
C1288      C1289   1.393       .  A
C1289      H1295   1.083       .  S
O1290      C1291   1.329       .  A
C1291      C1292   1.392       .  A
C1292      H1296   1.081       .  S
C1297      C1302   1.379       .  A
C1297      C1298   1.404       .  A
C1297      O1303   1.317       .  A
C1298      C1299   1.402       .  A
C1298      H1309   1.082       .  S
C1299      C1308   1.365       .  A
C1299      C1300   1.380       .  A
C1300      C1301   1.406       .  A
C1300      O1306   1.319       .  A
C1301      C1302   1.404       .  A
C1301      H1310   1.082       .  S
C1302      C1305   1.366       .  A
O1303      C1304   1.331       .  A
C1304      C1305   1.392       .  A
C1305      H1311   1.081       .  S
O1306      C1307   1.332       .  A
C1307      C1308   1.392       .  A
C1308      H1312   1.083       .  S
C1313      C1314   1.401       .  A
C1313      O1319   1.318       .  A
C1314      C1315   1.402       .  A
C1314      H1325   1.083       .  S
C1315      C1324   1.356       .  A
C1316      C1317   1.403       .  A
C1316      O1322   1.321       .  A
C1317      C1318   1.404       .  A
C1317      H1326   1.082       .  S
C1318      C1321   1.359       .  A
O1319      C1320   1.331       .  A
C1321      H1327   1.082       .  S
C1323      C1324   1.392       .  A
C1324      H1328   1.083       .  S
C1329      C1334   1.380       .  A
C1329      C1330   1.405       .  A
C1329      O1335   1.318       .  A
C1330      C1331   1.403       .  A
C1330      H1341   1.082       .  S
C1331      C1340   1.364       .  A
C1331      C1332   1.380       .  A
C1332      C1333   1.401       .  A
C1332      O1338   1.315       .  A
C1333      C1334   1.400       .  A
C1333      H1342   1.082       .  S
C1334      C1337   1.361       .  A
O1335      C1336   1.332       .  A
C1336      C1337   1.389       .  A
C1337      H1343   1.081       .  S
O1338      C1339   1.330       .  A
C1339      C1340   1.393       .  A
C1340      H1344   1.083       .  S
C1345      C1350   1.377       .  A
C1345      C1346   1.402       .  A
C1345      O1351   1.313       .  A
C1346      C1347   1.400       .  A
C1346      H1357   1.083       .  S
C1347      C1356   1.363       .  A
C1347      C1348   1.381       .  A
C1348      C1349   1.402       .  A
C1348      O1354   1.315       .  A
C1349      C1350   1.400       .  A
C1349      H1358   1.082       .  S
C1350      C1353   1.361       .  A
O1351      C1352   1.329       .  A
C1352      C1353   1.393       .  A
C1353      H1359   1.081       .  S
O1354      C1355   1.330       .  A
C1355      C1356   1.391       .  A
C1356      H1360   1.083       .  S
C1361      C1362   1.404       .  A
C1361      O1367   1.321       .  A
C1362      C1363   1.404       .  A
C1362      H1373   1.082       .  S
C1363      C1372   1.360       .  A
C1364      C1365   1.403       .  A
C1364      O1370   1.322       .  A
C1365      C1366   1.404       .  A
C1365      H1374   1.082       .  S
C1366      C1369   1.359       .  A
C1368      C1369   1.394       .  A
C1369      H1375   1.082       .  S
O1370      C1371   1.330       .  A
C1372      H1376   1.083       .  S
