geometry optimzed in LAMMPS
_audit_creation_date              2020-11-30 
_audit_creation_method            'lammps2cif' 
_symmetry_space_group_name_H-M    'P1' 
_symmetry_Int_Tables_number       1 
_symmetry_cell_setting            triclinic 
loop_ 
_symmetry_equiv_pos_as_xyz 
  x,y,z 
_cell_length_a                    52.71895083 
_cell_length_b                    52.72289837338661 
_cell_length_c                    28.105225917697833 
_cell_angle_alpha                 89.91710350354116 
_cell_angle_beta                  89.97345482601004 
_cell_angle_gamma                 120.20166259620798 
loop_ 
_atom_site_label 
_atom_site_type_symbol 
_atom_site_fract_x 
_atom_site_fract_y 
_atom_site_fract_z 
_atom_site_charge 
O1          O  0.57812906  0.04945368  0.58473491    -0.75100
O2          O  0.54041547  0.02647778  0.63784662    -0.54000
C3          C  0.56761019  0.04283521  0.62731438     0.78700
O4          O  0.47989196  0.05966752  0.42249978    -0.59700
O5          O  0.49072400  0.03542924  0.36641168    -0.52700
C6          C  0.48277488  0.05386063  0.37903213     0.70700
O7          O  0.48014482  0.05775770  0.58307633    -0.74200
O8          O  0.48567581  0.02830025  0.63654164    -0.54800
C9          C  0.48022712  0.04876393  0.62570250     0.76700
O10         O  0.58069708  0.05122969  0.42217897    -0.59400
O11         O  0.54437695  0.03113227  0.36641871    -0.52500
C12         C  0.57134495  0.04646798  0.37890050     0.73300
Zr13       Zr  0.55976432  0.03990939  0.50249614     2.54700
O14         O  0.58814864  0.09327361  0.50322929    -0.79900
O15         O  0.60435861  0.03680128  0.50332487    -0.93300
Zr16       Zr  0.48724453  0.04559173  0.50198889     2.64700
O17         O  0.52027166  0.09850920  0.50311282    -0.98300
O18         O  0.44479468  0.05211655  0.50570632    -0.80400
O19         O  0.52343021  0.04284564  0.54841906    -0.83700
O20         O  0.52454285  0.04456413  0.45627048    -2.18400
O21         O  0.52130184  0.94331109  0.41683037    -0.67100
O22         O  0.51207038  0.97006233  0.36301011    -0.51700
C23         C  0.51978930  0.95123259  0.37394250     0.71700
O24         O  0.41736260  0.94385201  0.57683458    -0.60000
O25         O  0.45316386  0.96682295  0.63253966    -0.52000
C26         C  0.42652117  0.94943963  0.62017103     0.73500
O27         O  0.41977371  0.94470186  0.41582884    -0.71400
O28         O  0.45626371  0.97193018  0.36269025    -0.50100
C29         C  0.42964345  0.95276965  0.37322782     0.74800
O30         O  0.51785849  0.93876092  0.57848762    -0.66700
O31         O  0.50863852  0.96462369  0.63396106    -0.53900
C32         C  0.51599264  0.94570347  0.62183501     0.73200
Zr33       Zr  0.51102830  0.95261553  0.49805183     2.77500
O34         O  0.47733130  0.89986808  0.49452566    -0.97500
O35         O  0.55325014  0.94556695  0.49939920    -0.78300
Zr36       Zr  0.43846366  0.95795853  0.49707564     2.70100
O37         O  0.40831737  0.90468678  0.49655723    -0.79600
O38         O  0.39549340  0.96374863  0.49475092    -0.98600
Zr39       Zr  0.49776010  0.99734150  0.58976576     2.21500
Zr40       Zr  0.49990229  0.00100924  0.40966847     2.11100
O41         O  0.47504834  0.95554170  0.45145061    -2.47300
O42         O  0.47360972  0.95348848  0.54390245    -0.79300
O43         O  0.53609353  0.99720100  0.45465862    -0.71500
O44         O  0.46155423  0.00082987  0.54454318    -2.32500
O45         O  0.53522946  0.99537547  0.54552494    -2.28700
O46         O  0.46252117  0.00281679  0.45401555    -0.73300
H47         H  0.53419628  0.06180853  0.43627605     0.78700
H48         H  0.44701613  0.00136069  0.56477339     0.79800
H49         H  0.46622612  0.93922358  0.42959578     0.82000
H50         H  0.54920142  0.99407507  0.56609780     0.79600
H51         H  0.42795483  0.03251389  0.49807901     0.42600
H52         H  0.39912799  0.97721348  0.46768734     0.41600
H53         H  0.42022339  0.89786329  0.51361477     0.41300
H54         H  0.46734470  0.89650070  0.46341667     0.39200
H55         H  0.56936493  0.96378649  0.48523331     0.42400
H56         H  0.59876055  0.01814910  0.51998831     0.37100
H57         H  0.57900233  0.09902374  0.52860066     0.43300
H58         H  0.52533084  0.10417444  0.46934196     0.39700
H59         H  0.49023598  0.89138386  0.49079165     0.44600
H60         H  0.61784271  0.05230726  0.52552377     0.43300
H61         H  0.50759380  0.10662689  0.51202391     0.43500
H62         H  0.37937541  0.94450055  0.48379176     0.43800
O63         O  0.04886408  0.57987143  0.58289049    -0.75100
O64         O  0.02926108  0.54236428  0.63664943    -0.54000
C65         C  0.04320735  0.56971513  0.62568144     0.78700
O66         O  0.93947176  0.51747881  0.42196761    -0.59700
O67         O  0.96926542  0.51381992  0.36679381    -0.52700
C68         C  0.94831015  0.51820958  0.37897927     0.70700
O69         O  0.94324201  0.51991569  0.58377423    -0.74200
O70         O  0.97030633  0.51079756  0.63722251    -0.54800
C71         C  0.95136196  0.51828452  0.62641665     0.76700
O72         O  0.05631304  0.58145937  0.42268157    -0.59400
O73         O  0.03286913  0.54552825  0.36717566    -0.52500
C74         C  0.05071662  0.57213442  0.37953161     0.73300
Zr75       Zr  0.04284480  0.56032935  0.50227105     2.54700
O76         O  0.04826207  0.60892170  0.49833379    -0.79900
O77         O  0.09588691  0.58228689  0.50851033    -0.93300
Zr78       Zr  0.95484704  0.51271634  0.50211919     2.64700
O79         O  0.95164753  0.55722446  0.50183536    -0.98300
O80         O  0.90169085  0.48187324  0.50575244    -0.80400
O81         O  0.99875307  0.53648615  0.54695770    -0.83700
O82         O  0.99885776  0.53791395  0.45700981    -2.18400
O83         O  0.06210173  0.48467573  0.41744626    -0.67100
O84         O  0.03208434  0.48948653  0.36422944    -0.51700
C85         C  0.05307108  0.48481619  0.37494476     0.71700
O86         O  0.95031809  0.41821515  0.57925678    -0.60000
O87         O  0.97088497  0.45465521  0.63460667    -0.52000
C88         C  0.95566066  0.42759321  0.62254422     0.73500
O89         O  0.94395410  0.42201834  0.41699395    -0.71400
O90         O  0.96881149  0.45888940  0.36333198    -0.50100
C91         C  0.94989459  0.43226756  0.37412558     0.74800
O92         O  0.05955172  0.47913679  0.57825651    -0.66700
O93         O  0.03166826  0.48566815  0.63364930    -0.53900
C94         C  0.05126205  0.47937050  0.62125141     0.73200
Zr95       Zr  0.04690807  0.48739578  0.49852368     2.77500
O96         O  0.04946081  0.44257275  0.49542951    -0.97500
O97         O  0.10021782  0.51719579  0.50117447    -0.78300
Zr98       Zr  0.95916703  0.43940719  0.49884084     2.70100
O99         O  0.96099337  0.39441165  0.49042667    -0.79600
O100        O  0.90603514  0.41110041  0.50727322    -0.98600
Zr101      Zr  0.00077148  0.49878667  0.58990612     2.21500
Zr102      Zr  0.00081726  0.50125100  0.41050241     2.11100
O103        O  0.00296723  0.46334240  0.45326284    -2.47300
O104        O  0.00310575  0.46231443  0.54382957    -0.79300
O105        O  0.04555467  0.52493283  0.45397439    -0.71500
O106        O  0.95598999  0.47492635  0.54639429    -2.32500
O107        O  0.04575497  0.52372080  0.54693305    -2.28700
O108        O  0.95627417  0.47628746  0.45457356    -0.73300
H109        H  0.99821684  0.55251875  0.43704765     0.78700
H110        H  0.93924916  0.46554327  0.56747065     0.79800
H111        H  0.00355217  0.44932315  0.43186877     0.82000
H112        H  0.06233004  0.53250101  0.56833809     0.79600
H113        H  0.89681285  0.46727684  0.48011889     0.42600
H114        H  0.89862109  0.41903907  0.48242861     0.41600
H115        H  0.98083991  0.39969417  0.50171096     0.41300
H116        H  0.03845127  0.43228432  0.46643351     0.39200
H117        H  0.10430315  0.53440783  0.52081016     0.42400
H118        H  0.10014911  0.58617070  0.54288472     0.37100
H119        H  0.02799027  0.60510037  0.49410641     0.43300
H120        H  0.96360046  0.56871577  0.47422320     0.39700
H121        H  0.07021747  0.44928088  0.48764594     0.44600
H122        H  0.10388398  0.60198292  0.49401955     0.43300
H123        H  0.93114332  0.55062119  0.49249482     0.43500
H124        H  0.90057344  0.39123261  0.49585932     0.43800
O125        O  0.42085611  0.47857543  0.58025574    -0.75100
O126        O  0.45673952  0.48976612  0.63523923    -0.54000
C127        C  0.43005088  0.48096905  0.62342629     0.78700
O128        O  0.47752499  0.42177065  0.41959795    -0.59700
O129        O  0.48887038  0.45784467  0.36532903    -0.52700
C130        C  0.48030815  0.43116242  0.37627688     0.70700
O131        O  0.47657566  0.42240005  0.58138663    -0.74200
O132        O  0.48876771  0.45876182  0.63588201    -0.54800
C133        C  0.47980650  0.43195154  0.62440486     0.76700
O134        O  0.42057350  0.47655844  0.41919174    -0.59400
O135        O  0.45679713  0.48808893  0.36450730    -0.52500
C136        C  0.42992826  0.47888345  0.37608897     0.73300
Zr137      Zr  0.44117179  0.48629188  0.49975342     2.54700
O138        O  0.39279696  0.44262628  0.50481043    -0.79900
O139        O  0.42056251  0.51850826  0.49755755    -0.93300
Zr140      Zr  0.48453954  0.44220039  0.50067624     2.64700
O141        O  0.43772101  0.39637460  0.50291176    -0.98300
O142        O  0.51238325  0.41680094  0.50143894    -0.80400
O143        O  0.46261264  0.46420985  0.54579240    -0.83700
O144        O  0.46219862  0.46330557  0.45500907    -2.18400
O145        O  0.52140041  0.58024038  0.41716207    -0.67100
O146        O  0.51370901  0.54457825  0.36341219    -0.51700
C147        C  0.52025023  0.57075146  0.37458929     0.71700
O148        O  0.58099670  0.52894883  0.58061686    -0.60000
O149        O  0.54558970  0.51875237  0.63578191    -0.52000
C150        C  0.57242985  0.52804101  0.62378496     0.73500
O151        O  0.58055588  0.52297111  0.42063442    -0.71400
O152        O  0.54490026  0.51296606  0.36580177    -0.50100
C153        C  0.57136019  0.52048902  0.37750879     0.74800
O154        O  0.52600310  0.58288087  0.57788729    -0.66700
O155        O  0.51319845  0.54698909  0.63401608    -0.53900
C156        C  0.52286986  0.57370230  0.62114106     0.73200
Zr157      Zr  0.51639330  0.56153412  0.49833015     2.77500
O158        O  0.56206437  0.60848153  0.49489990    -0.97500
O159        O  0.48657500  0.58482634  0.50100790    -0.78300
Zr160      Zr  0.56020340  0.51797552  0.50053300     2.70100
O161        O  0.60578217  0.56477944  0.49660617    -0.79600
O162        O  0.58524029  0.48992023  0.50688017    -0.98600
Zr163      Zr  0.50080484  0.50262333  0.59070855     2.21500
Zr164      Zr  0.50080760  0.50132207  0.40975790     2.11100
O165        O  0.53901415  0.54003909  0.45402137    -2.47300
O166        O  0.53873075  0.54052863  0.54479020    -0.79300
O167        O  0.47841042  0.52389471  0.45240290    -0.71500
O168        O  0.52277148  0.47991363  0.54693119    -2.32500
O169        O  0.47850970  0.52454291  0.54560986    -2.28700
O170        O  0.52302631  0.47940052  0.45457674    -0.73300
H171        H  0.44747968  0.44837845  0.43477913     0.78700
H172        H  0.53129159  0.47177445  0.56812083     0.79800
H173        H  0.55375750  0.55457528  0.43321910     0.82000
H174        H  0.47012556  0.53311206  0.56613658     0.79600
H175        H  0.52865293  0.42807137  0.52401149     0.42600
H176        H  0.58042151  0.47855505  0.47693598     0.41600
H177        H  0.59966689  0.57928765  0.48923075     0.41300
H178        H  0.57215494  0.60757420  0.46577597     0.39200
H179        H  0.47585072  0.57954383  0.47039080     0.42400
H180        H  0.39906472  0.50501550  0.49858463     0.37100
H181        H  0.39679002  0.42623489  0.50765139     0.43300
H182        H  0.42616890  0.39798442  0.47652428     0.39700
H183        H  0.55594904  0.62297524  0.48735340     0.44600
H184        H  0.42449462  0.52661286  0.46484182     0.43300
H185        H  0.44237379  0.38128557  0.49222731     0.43500
H186        H  0.60633166  0.50478133  0.50388591     0.43800
O187        O  0.78873298  0.49171027  0.99321582    -0.75100
O188        O  0.83692010  0.52790895  0.99453649    -0.54000
C189        C  0.81646256  0.50084766  0.99355624     0.78700
O190        O  0.74666660  0.57561648  0.86589391    -0.59700
O191        O  0.71656634  0.57586293  0.92408169    -0.52700
C192        C  0.72311300  0.57497741  0.88030049     0.70700
O193        O  0.83122791  0.57260414  0.86822466    -0.74200
O194        O  0.86079974  0.57363071  0.92784799    -0.54800
C195        C  0.85383871  0.57175531  0.88374451     0.76700
O196        O  0.70360954  0.49310491  0.99064872    -0.59400
O197        O  0.69240820  0.52959949  0.99361572    -0.52500
C198        C  0.68521240  0.50241240  0.99141272     0.73300
Zr199      Zr  0.75649963  0.51262985  0.99257158     2.54700
O200        O  0.73990914  0.47986549  0.92430543    -0.79900
O201        O  0.73408739  0.47221404  0.04929362    -0.93300
Zr202      Zr  0.79095134  0.57839762  0.89933408     2.64700
O203        O  0.77669985  0.54790533  0.82825458    -0.98300
O204        O  0.81440167  0.62241012  0.85017809    -0.80400
O205        O  0.79773600  0.54472427  0.94588262    -0.83700
O206        O  0.74922021  0.54534457  0.94471889    -2.18400
O207        O  0.73766872  0.55909218  0.12806012    -0.67100
O208        O  0.71268725  0.56864592  0.07124388    -0.51700
C209        C  0.71560210  0.56098574  0.11343804     0.71700
O210        O  0.87259828  0.65558993  0.01522954    -0.60000
O211        O  0.88261790  0.61842219  0.00844206    -0.52000
C212        C  0.89045151  0.64553730  0.01470732     0.73500
O213        O  0.78741228  0.65716989  0.00525349    -0.71400
O214        O  0.73935008  0.62063517  0.00148636    -0.50100
C215        C  0.75960962  0.64777309  0.00395446     0.74800
O216        O  0.82473202  0.56485935  0.13182018    -0.66700
O217        O  0.85619765  0.56735052  0.07419313    -0.53900
C218        C  0.84751706  0.56405115  0.11764600     0.73200
Zr219      Zr  0.78548809  0.57063887  0.09813640     2.77500
O220        O  0.80312104  0.61201640  0.15247797    -0.97500
O221        O  0.77024127  0.53739561  0.16599098    -0.78300
Zr222      Zr  0.81964729  0.63598145  0.00468477     2.70100
O223        O  0.83694088  0.67451955  0.06444087    -0.79600
O224        O  0.84098822  0.67157249  0.94031061    -0.98600
Zr225      Zr  0.83610211  0.57337972  0.00035831     2.21500
Zr226      Zr  0.73955797  0.57475863  0.99792941     2.11100
O227        O  0.77816369  0.60410697  0.05216082    -2.47300
O228        O  0.82734926  0.60342697  0.05323483    -0.79300
O229        O  0.74647926  0.54138479  0.04556176    -0.71500
O230        O  0.83023002  0.60728962  0.95191738    -2.32500
O231        O  0.79472376  0.54050410  0.04703176    -2.28700
O232        O  0.78074202  0.60787715  0.95074857    -0.73300
H233        H  0.73272831  0.53388416  0.92402213     0.78700
H234        H  0.84790345  0.61969204  0.93404545     0.79800
H235        H  0.77264138  0.61521185  0.07271636     0.82000
H236        H  0.79857111  0.52733161  0.06545973     0.79600
H237        H  0.82175932  0.61672466  0.82210003     0.42600
H238        H  0.82392830  0.66904978  0.92170509     0.41600
H239        H  0.82157486  0.66660200  0.08938329     0.41300
H240        H  0.80087050  0.60322260  0.18445468     0.39200
H241        H  0.76342916  0.51783346  0.15178277     0.42400
H242        H  0.74847470  0.47811153  0.07553600     0.37100
H243        H  0.75268133  0.49194840  0.89781072     0.43300
H244        H  0.75612567  0.53234751  0.83407432     0.39700
H245        H  0.82459770  0.62335705  0.14712746     0.44600
H246        H  0.73469871  0.45576181  0.03347175     0.43300
H247        H  0.77545689  0.56023131  0.80278702     0.43500
H248        H  0.84869138  0.69084511  0.95608599     0.43800
O249        O  0.70263775  0.20910704  0.00186918    -0.75100
O250        O  0.69069532  0.16109140  0.99743974    -0.54000
C251        C  0.68398216  0.18139201  0.00083637     0.78700
O252        O  0.83019959  0.25494713  0.86752073    -0.59700
O253        O  0.85872956  0.28507558  0.92666072    -0.52700
C254        C  0.85256542  0.27885364  0.88256245     0.70700
O255        O  0.74300541  0.17020453  0.86603969    -0.74200
O256        O  0.71398441  0.13922365  0.92420198    -0.54800
C257        C  0.71974414  0.14690639  0.88018373     0.76700
O258        O  0.78822508  0.29482453  0.99055470    -0.59400
O259        O  0.83628786  0.30705902  0.99561240    -0.52500
C260        C  0.81596041  0.31355732  0.99114324     0.73300
Zr261      Zr  0.75560349  0.24175875  0.99617514     2.54700
O262        O  0.73478744  0.25476461  0.92970233    -0.79900
O263        O  0.73990095  0.26493294  0.05493362    -0.93300
Zr264      Zr  0.78794542  0.21059763  0.89949101     2.64700
O265        O  0.77111265  0.22699327  0.83171105    -0.98300
O266        O  0.80904526  0.18935826  0.84690175    -0.80400
O267        O  0.74696368  0.20180401  0.94678247    -0.83700
O268        O  0.79574357  0.25095471  0.94703980    -2.18400
O269        O  0.82315780  0.25916903  0.13053690    -0.67100
O270        O  0.85590454  0.28693347  0.07295009    -0.51700
C271        C  0.84648385  0.28239780  0.11605141     0.71700
O272        O  0.78613863  0.12815981  0.00588007    -0.60000
O273        O  0.73807849  0.11665372  0.00589712    -0.52000
C274        C  0.75832860  0.10980987  0.00764783     0.73500
O275        O  0.87179790  0.21499627  0.00167150    -0.71400
O276        O  0.88168979  0.26239076  0.00117085    -0.50100
C277        C  0.88967783  0.24301051  0.00145531     0.74800
O278        O  0.74062722  0.17075173  0.12998353    -0.66700
O279        O  0.71143972  0.14022965  0.07172297    -0.53900
C280        C  0.71699950  0.14789695  0.11552404     0.73200
Zr281      Zr  0.78590873  0.21177512  0.09867040     2.77500
O282        O  0.80909173  0.19207337  0.14999909    -0.97500
O283        O  0.76873364  0.22503340  0.16961739    -0.78300
Zr284      Zr  0.81824279  0.18145644  0.00175893     2.70100
O285        O  0.83715673  0.16401247  0.06506526    -0.79600
O286        O  0.83516765  0.16262930  0.93759705    -0.98600
Zr287      Zr  0.73767077  0.16240568  0.99873987     2.21500
Zr288      Zr  0.83496389  0.26054084  0.99971847     2.11100
O289        O  0.82709869  0.22145818  0.05171065    -2.47300
O290        O  0.77726237  0.17143834  0.05042737    -0.79300
O291        O  0.79458004  0.25169358  0.04882213    -0.71500
O292        O  0.77829432  0.17066135  0.94995817    -2.32500
O293        O  0.74617767  0.20267913  0.04826304    -2.28700
O294        O  0.82799505  0.22095432  0.95009497    -0.73300
H295        H  0.80055430  0.26758044  0.92676835     0.78700
H296        H  0.77347701  0.15353080  0.93104115     0.79800
H297        H  0.84392884  0.22703385  0.07187463     0.82000
H298        H  0.72922816  0.19820786  0.06744283     0.79600
H299        H  0.79219365  0.17046319  0.83637677     0.42600
H300        H  0.85115668  0.18030951  0.92195575     0.41600
H301        H  0.82087510  0.15467349  0.08834420     0.41300
H302        H  0.81940547  0.20739547  0.17443890     0.39200
H303        H  0.76109861  0.23758098  0.15763547     0.42400
H304        H  0.73338212  0.25141165  0.08254199     0.37100
H305        H  0.74541183  0.25369934  0.90141705     0.43300
H306        H  0.77863396  0.24812114  0.83741471     0.39700
H307        H  0.79260953  0.17571804  0.16733498     0.44600
H308        H  0.72165035  0.26313982  0.04178312     0.43300
H309        H  0.78277144  0.22651648  0.80445171     0.43500
H310        H  0.84521331  0.15349318  0.95394985     0.43800
O311        O  0.29213049  0.78463788  0.99087622    -0.75100
O312        O  0.30650501  0.83317950  0.99154480    -0.54000
C313        C  0.31197904  0.81198575  0.99025244     0.78700
O314        O  0.16427623  0.74298570  0.86766440    -0.59700
O315        O  0.13601686  0.71313049  0.92761681    -0.52700
C316        C  0.14183645  0.71934090  0.88324290     0.70700
O317        O  0.25312604  0.82477098  0.86355086    -0.74200
O318        O  0.28409136  0.85554732  0.92043973    -0.54800
C319        C  0.27716218  0.84745058  0.87703739     0.76700
O320        O  0.20509150  0.70148964  0.00510279    -0.59400
O321        O  0.15744976  0.69084216  0.00185223    -0.52500
C322        C  0.17725092  0.68348040  0.00500084     0.73300
Zr323      Zr  0.23904716  0.75375354  0.99554015     2.54700
O324        O  0.25194463  0.73264814  0.92939939    -0.79900
O325        O  0.25950833  0.73450136  0.05333798    -0.93300
Zr326      Zr  0.20813803  0.78571996  0.89856536     2.64700
O327        O  0.22391891  0.76520694  0.83524690    -0.98300
O328        O  0.19046612  0.80853019  0.84242985    -0.80400
O329        O  0.24902545  0.79352450  0.94479763    -0.83700
O330        O  0.19874609  0.74519975  0.94737350    -2.18400
O331        O  0.17355391  0.74324580  0.13218886    -0.67100
O332        O  0.14026020  0.71456319  0.07607997    -0.51700
C333        C  0.14980507  0.72015906  0.11910515     0.71700
O334        O  0.21665153  0.87259041  0.00275086    -0.60000
O335        O  0.26357332  0.88122539  0.99804739    -0.52000
C336        C  0.24478666  0.88986602  0.00165647     0.73500
O337        O  0.12802038  0.78783971  0.00407619    -0.71400
O338        O  0.11518059  0.73941265  0.00252120    -0.50100
C339        C  0.10902124  0.76009501  0.00427561     0.74800
O340        O  0.25863905  0.82790531  0.12811379    -0.66700
O341        O  0.28783682  0.85650183  0.06772605    -0.53900
C342        C  0.28252959  0.84978289  0.11201759     0.73200
Zr343      Zr  0.21290385  0.78770751  0.09711424     2.77500
O344        O  0.19341242  0.80936461  0.15203944    -0.97500
O345        O  0.23115777  0.77029842  0.16143549    -0.78300
Zr346      Zr  0.18184473  0.81933217  0.00015137     2.70100
O347        O  0.16446593  0.83863773  0.06286715    -0.79600
O348        O  0.16585849  0.83950302  0.93664374    -0.98600
Zr349      Zr  0.26075592  0.83403973  0.99539780     2.21500
Zr350      Zr  0.16056982  0.73842151  0.00037735     2.11100
O351        O  0.17176361  0.77918301  0.05088644    -2.47300
O352        O  0.22268154  0.82808142  0.04799345    -0.79300
O353        O  0.20111888  0.74661179  0.04839986    -0.71500
O354        O  0.22030151  0.82692992  0.94735864    -2.32500
O355        O  0.25143415  0.79411963  0.04610939    -2.28700
O356        O  0.16926148  0.77840875  0.94983288    -0.73300
H357        H  0.19296486  0.72791764  0.92828980     0.78700
H358        H  0.22569022  0.84394550  0.92767438     0.79800
H359        H  0.15547049  0.77479431  0.07171996     0.82000
H360        H  0.26855773  0.79821366  0.06445454     0.79600
H361        H  0.16913610  0.79898585  0.84880799     0.42600
H362        H  0.15208649  0.82224078  0.91755624     0.41600
H363        H  0.18162977  0.84960393  0.08398647     0.41300
H364        H  0.19472398  0.80180978  0.18366242     0.39200
H365        H  0.24113817  0.76109487  0.14508539     0.42400
H366        H  0.27246588  0.75144670  0.07369956     0.37100
H367        H  0.26294226  0.74923743  0.90713807     0.43300
H368        H  0.21712313  0.74476204  0.84529673     0.39700
H369        H  0.20847476  0.83047481  0.15284745     0.44600
H370        H  0.27308312  0.73051456  0.03474613     0.43300
H371        H  0.21138693  0.76330067  0.80769596     0.43500
H372        H  0.15324540  0.84581176  0.95274827     0.43800
O373        O  0.57665352  0.83116513  0.86565281    -0.75100
O374        O  0.57347702  0.85889580  0.92507615    -0.54000
C375        C  0.57368277  0.85252690  0.88097326     0.78700
O376        O  0.49646263  0.70440420  0.00108686    -0.59700
O377        O  0.53267063  0.69279260  0.99613262    -0.52700
C378        C  0.50568659  0.68594771  0.00071647     0.70700
O379        O  0.49498893  0.78910916  0.98439477    -0.74200
O380        O  0.53035494  0.83698902  0.99585079    -0.54800
C381        C  0.50364207  0.81659185  0.98879572     0.76700
O382        O  0.57946756  0.74757352  0.86412097    -0.59400
O383        O  0.57826736  0.71701181  0.92255625    -0.52500
C384        C  0.57830920  0.72385180  0.87856294     0.73300
Zr385      Zr  0.58179829  0.79110545  0.89841252     2.54700
O386        O  0.55071294  0.77526507  0.82807112    -0.79900
O387        O  0.62557535  0.81405049  0.84856676    -0.93300
Zr388      Zr  0.51577842  0.75698904  0.99106415     2.64700
O389        O  0.48340020  0.73607059  0.92280131    -0.98300
O390        O  0.47466677  0.73981657  0.04603383    -0.80400
O391        O  0.54803766  0.79808576  0.94433184    -0.83700
O392        O  0.54830561  0.74933381  0.94339114    -2.18400
O393        O  0.66046735  0.78714591  0.00434684    -0.67100
O394        O  0.62331240  0.73951730  0.00123619    -0.51700
C395        C  0.65067873  0.75915432  0.00368224     0.71700
O396        O  0.57069039  0.82719526  0.13121112    -0.60000
O397        O  0.57283118  0.85840181  0.07317376    -0.52000
C398        C  0.57056759  0.85035813  0.11699649     0.73500
O399        O  0.56745145  0.74055552  0.12847660    -0.71400
O400        O  0.57357795  0.71405682  0.07043418    -0.50100
C401        C  0.56863427  0.71807162  0.11376928     0.74800
O402        O  0.65892965  0.87332055  0.00624317    -0.66700
O403        O  0.62146017  0.88316388  0.00053178    -0.53900
C404        C  0.64879024  0.89107229  0.00329490     0.73200
Zr405      Zr  0.63924055  0.81987001  0.00429470     2.77500
O406        O  0.67211397  0.83652374  0.07252135    -0.97500
O407        O  0.67934539  0.84202583  0.94711257    -0.78300
Zr408      Zr  0.57331437  0.78616679  0.09702354     2.70100
O409        O  0.61058193  0.80321263  0.15888379    -0.79600
O410        O  0.53330109  0.76783744  0.15450967    -0.98600
Zr411      Zr  0.57627077  0.83660906  0.99882243     2.21500
Zr412      Zr  0.57777341  0.74002840  0.99691370     2.11100
O413        O  0.60678904  0.77862662  0.05127741    -2.47300
O414        O  0.60634068  0.82777359  0.05171835    -0.79300
O415        O  0.61133908  0.78105981  0.94995654    -0.71500
O416        O  0.54337196  0.79541016  0.04549220    -2.32500
O417        O  0.61028882  0.83020517  0.95127926    -2.28700
O418        O  0.54448111  0.74709925  0.04437848    -0.73300
H419        H  0.53681020  0.73270876  0.92296070     0.78700
H420        H  0.53031099  0.79947600  0.06380002     0.79800
H421        H  0.61781919  0.77310648  0.07202110     0.82000
H422        H  0.62260918  0.84773288  0.93304275     0.79600
H423        H  0.48378677  0.74408693  0.07798062     0.42600
H424        H  0.51990341  0.74717854  0.14520533     0.41600
H425        H  0.62460372  0.82388094  0.15031630     0.41300
H426        H  0.66768901  0.81836900  0.08979612     0.39200
H427        H  0.67303814  0.82766648  0.92077984     0.42400
H428        H  0.63651228  0.83483921  0.85865715     0.37100
H429        H  0.53053918  0.76695133  0.84074204     0.43300
H430        H  0.46339291  0.72781232  0.93616744     0.39700
H431        H  0.69185398  0.84368852  0.05869912     0.44600
H432        H  0.61817319  0.81458709  0.81643002     0.43300
H433        H  0.48645488  0.75326333  0.90393189     0.43500
H434        H  0.54214166  0.76654356  0.18482925     0.43800
O435        O  0.20771611  0.50683087  0.00003567    -0.75100
O436        O  0.15992030  0.46994172  0.00324996    -0.54000
C437        C  0.17990143  0.49720789  0.00092400     0.78700
O438        O  0.25761698  0.43193450  0.86890220    -0.59700
O439        O  0.28773862  0.43260439  0.92765328    -0.52700
C440        C  0.28165237  0.43394794  0.88377548     0.70700
O441        O  0.17240822  0.43208035  0.86917051    -0.74200
O442        O  0.14017265  0.42735556  0.92725007    -0.54800
C443        C  0.14876509  0.43110417  0.88366325     0.76700
O444        O  0.29467647  0.51012585  0.00310920    -0.59400
O445        O  0.30755735  0.47475542  0.00470578    -0.52500
C446        C  0.31373644  0.50170307  0.00383460     0.73300
Zr447      Zr  0.24145011  0.48786097  0.00303525     2.54700
O448        O  0.26020888  0.52634134  0.94294563    -0.79900
O449        O  0.25704944  0.52233543  0.06903873    -0.93300
Zr450      Zr  0.21249453  0.42714495  0.90155260     2.64700
O451        O  0.22851363  0.46027444  0.83338446    -0.98300
O452        O  0.19159807  0.38506287  0.84830941    -0.80400
O453        O  0.20245004  0.45738875  0.95137631    -0.83700
O454        O  0.25210541  0.45901768  0.95136282    -2.18400
O455        O  0.25842676  0.43512466  0.13216462    -0.67100
O456        O  0.28627850  0.43013355  0.07493602    -0.51700
C457        C  0.28155235  0.43500519  0.11792975     0.71700
O458        O  0.12824752  0.34234369  0.00098170    -0.60000
O459        O  0.11698778  0.37889296  0.00367010    -0.52000
C460        C  0.10983476  0.35169541  0.00303763     0.73500
O461        O  0.21599581  0.34516066  0.99703032    -0.71400
O462        O  0.26353752  0.38300302  0.99623499    -0.50100
C463        C  0.24400264  0.35552157  0.99583370     0.74800
O464        O  0.17016023  0.42715649  0.13344392    -0.66700
O465        O  0.13958893  0.42621509  0.07542264    -0.53900
C466        C  0.14718912  0.42752644  0.11926491     0.73200
Zr467      Zr  0.21115639  0.42426450  0.10002257     2.77500
O468        O  0.19244486  0.37953168  0.14690741    -0.97500
O469        O  0.22267494  0.45200727  0.17377094    -0.78300
Zr470      Zr  0.18202892  0.36433539  0.99836385     2.70100
O471        O  0.16343646  0.32434199  0.05580758    -0.79600
O472        O  0.16512546  0.33102888  0.93072985    -0.98600
Zr473      Zr  0.16262838  0.42519589  0.00135164     2.21500
Zr474      Zr  0.26165605  0.42801822  0.00099270     2.11100
O475        O  0.22166940  0.39460383  0.05015865    -2.47300
O476        O  0.17121238  0.39327993  0.05029338    -0.79300
O477        O  0.25145415  0.45753608  0.05252466    -0.71500
O478        O  0.17178856  0.39485083  0.94930789    -2.32500
O479        O  0.20200952  0.45617025  0.05284082    -2.28700
O480        O  0.22249613  0.39628104  0.94947847    -0.73300
H481        H  0.26901005  0.47191759  0.93229569     0.78700
H482        H  0.15496282  0.38301232  0.92941664     0.79800
H483        H  0.22714226  0.38287041  0.06929433     0.82000
H484        H  0.19706951  0.46800802  0.07267425     0.79600
H485        H  0.20666550  0.37914629  0.84636144     0.42600
H486        H  0.18329504  0.33448880  0.91457800     0.41600
H487        H  0.17590450  0.33296505  0.08426776     0.41300
H488        H  0.20038244  0.38639830  0.17922358     0.39200
H489        H  0.23028044  0.47254159  0.16336435     0.42400
H490        H  0.27304916  0.54095468  0.05574190     0.37100
H491        H  0.25267224  0.51571884  0.91251953     0.43300
H492        H  0.24938019  0.47481423  0.83960757     0.39700
H493        H  0.17114477  0.37217190  0.14994107     0.44600
H494        H  0.26701713  0.51555905  0.09121290     0.43300
H495        H  0.22893728  0.44842226  0.80641085     0.43500
H496        H  0.15687370  0.31125933  0.94506133     0.43800
O497        O  0.42757080  0.17067101  0.86647948    -0.75100
O498        O  0.42871542  0.14215172  0.92659858    -0.54000
C499        C  0.42954577  0.14876218  0.88232916     0.78700
O500        O  0.50471384  0.29673766  0.00081684    -0.59700
O501        O  0.46839804  0.30812416  0.99545575    -0.52700
C502        C  0.49551077  0.31516535  0.99874262     0.70700
O503        O  0.50595850  0.21219420  0.99056093    -0.74200
O504        O  0.47047424  0.16404734  0.99795515    -0.54800
C505        C  0.49733801  0.18463648  0.99289773     0.76700
O506        O  0.42581526  0.25506590  0.86412519    -0.59400
O507        O  0.42438228  0.28464124  0.92199877    -0.52500
C508        C  0.42642566  0.27855964  0.87834392     0.73300
Zr509      Zr  0.42187744  0.21078250  0.89835074     2.54700
O510        O  0.45410280  0.22752842  0.82921419    -0.79900
O511        O  0.37860233  0.18777147  0.84761738    -0.93300
Zr512      Zr  0.48475847  0.24387452  0.99665589     2.64700
O513        O  0.52245020  0.26484550  0.93526514    -0.98300
O514        O  0.52053858  0.25942289  0.06069024    -0.80400
O515        O  0.45432940  0.20352677  0.94720252    -0.83700
O516        O  0.45378192  0.25188362  0.94587370    -2.18400
O517        O  0.34029647  0.21379215  0.99477351    -0.67100
O518        O  0.37762270  0.26143317  0.99788541    -0.51700
C519        C  0.35026300  0.24180699  0.99608609     0.71700
O520        O  0.43339238  0.17600036  0.13076615    -0.60000
O521        O  0.42948310  0.14339942  0.07390686    -0.52000
C522        C  0.43443140  0.15330101  0.11678376     0.73500
O523        O  0.43531730  0.26105613  0.12679954    -0.71400
O524        O  0.42839168  0.28787075  0.07000215    -0.50100
C525        C  0.43475398  0.28396435  0.11260091     0.74800
O526        O  0.34155906  0.12727013  0.99836590    -0.66700
O527        O  0.37930114  0.11762086  0.99787798    -0.53900
C528        C  0.35190807  0.10965264  0.99681862     0.73200
Zr529      Zr  0.36108201  0.18075401  0.99924731     2.77500
O530        O  0.32526553  0.16310355  0.06364209    -0.97500
O531        O  0.32239371  0.15933108  0.93970251    -0.78300
Zr532      Zr  0.42297725  0.21263992  0.09748181     2.70100
O533        O  0.37740729  0.19193276  0.14269138    -0.79600
O534        O  0.44521722  0.22122062  0.17615231    -0.98600
Zr535      Zr  0.42442893  0.16421941  0.99956811     2.21500
Zr536      Zr  0.42309641  0.26095850  0.99684739     2.11100
O537        O  0.39155625  0.22152609  0.04878776    -2.47300
O538        O  0.39196796  0.17146263  0.04986684    -0.79300
O539        O  0.39109136  0.22049946  0.94743132    -0.71500
O540        O  0.45531605  0.20490466  0.04870584    -2.32500
O541        O  0.39178279  0.17112104  0.94912776    -2.28700
O542        O  0.45437026  0.25281440  0.04775615    -0.73300
H543        H  0.46592486  0.26871904  0.92610939     0.78700
H544        H  0.46857580  0.20135682  0.06728668     0.79800
H545        H  0.37993078  0.22693617  0.06827663     0.82000
H546        H  0.38010514  0.15398013  0.92980122     0.79600
H547        H  0.51087265  0.26305512  0.08793019     0.42600
H548        H  0.46500809  0.23865562  0.17240690     0.41600
H549        H  0.37592914  0.17444252  0.15849647     0.41300
H550        H  0.32739633  0.18107060  0.07856897     0.39200
H551        H  0.32887120  0.17442408  0.91441581     0.42400
H552        H  0.38657324  0.18991848  0.81502062     0.37100
H553        H  0.47184442  0.24563860  0.83999223     0.43300
H554        H  0.51779918  0.27789755  0.91652300     0.39700
H555        H  0.30602503  0.15413061  0.04734627     0.44600
H556        H  0.37076168  0.20133596  0.84852060     0.43300
H557        H  0.54068869  0.27833492  0.95257760     0.43500
H558        H  0.43425905  0.22789305  0.19621792     0.43800
C559        C  0.25479444  0.33445236  0.99366383    -0.11700
C560        C  0.24613175  0.31164273  0.02730041     0.03700
C561        C  0.25863326  0.29360260  0.02616727    -0.12300
C562        C  0.27973504  0.29783658  0.99178317     0.18600
C563        C  0.28780074  0.32008099  0.95743077    -0.09300
C564        C  0.27548715  0.33823877  0.95871059    -0.02300
H565        H  0.25272231  0.27694082  0.05331942     0.05100
C566        C  0.29578381  0.28149297  0.99562394     0.20600
H567        H  0.28240462  0.35567323  0.93266376     0.10300
C568        C  0.28748036  0.25632043  0.96800340    -0.15700
C569        C  0.30407207  0.24212753  0.96858580     0.03300
C570        C  0.32952698  0.25324985  0.99719118    -0.11000
C571        C  0.33712561  0.27803800  0.02559754    -0.01000
C572        C  0.32060267  0.29204408  0.02503009    -0.06200
H573        H  0.26851278  0.24818512  0.94495231     0.06300
H574        H  0.35645231  0.28696547  0.04798424     0.09700
Br575      Br  0.31666023  0.32728349  0.90960563    -0.05900
Br576      Br  0.21968026  0.30615496  0.07836853    -0.02800
Br577      Br  0.29227836  0.20940643  0.92671318     0.00000
Br578      Br  0.33355129  0.32640483  0.06361836    -0.04300
C579        C  0.34496366  0.52497433  0.00285312    -0.11700
C580        C  0.35549484  0.54742071  0.96824004     0.03700
C581        C  0.38466178  0.57020605  0.96952241    -0.12300
C582        C  0.40383014  0.57137807  0.00512546     0.18600
C583        C  0.39355941  0.54871908  0.03927582    -0.09300
C584        C  0.36438693  0.52551253  0.03758505    -0.02300
H585        H  0.39224595  0.58761253  0.94328530     0.05100
C586        C  0.43324250  0.59807862  0.00829802     0.20600
H587        H  0.35660277  0.50838487  0.06434226     0.10300
C588        C  0.43883734  0.61766187  0.04587362    -0.15700
C589        C  0.46367774  0.64568977  0.04540871     0.03300
C590        C  0.48316748  0.65476348  0.00648954    -0.11000
C591        C  0.47893419  0.63444610  0.97072352    -0.01000
C592        C  0.45410701  0.60619334  0.97142931    -0.06200
H593        H  0.42316158  0.61158274  0.07469354     0.06300
H594        H  0.49408909  0.64101118  0.94104492     0.09700
Br595      Br  0.41855407  0.54887159  0.08890794    -0.05900
Br596      Br  0.33124555  0.54774989  0.91758604    -0.02800
Br597      Br  0.47012668  0.67097292  0.09869735     0.00000
Br598      Br  0.44900972  0.57956881  0.92095434    -0.04300
C599        C  0.25665272  0.92209025  0.00378280    -0.11700
C600        C  0.28355546  0.94110108  0.02678337     0.03700
C601        C  0.29550996  0.97148740  0.02419337    -0.12300
C602        C  0.28119295  0.98368925  0.99939858     0.18600
C603        C  0.25400070  0.96501039  0.97772767    -0.09300
C604        C  0.24182068  0.93444667  0.98028707    -0.02300
H605        H  0.31633223  0.98578711  0.04134901     0.05100
C606        C  0.29610609  0.01600506  0.99487695     0.20600
H607        H  0.22122952  0.92036622  0.96238995     0.10300
C608        C  0.31874042  0.02990508  0.96146750    -0.15700
C609        C  0.33601118  0.06048244  0.95998509     0.03300
C610        C  0.33114568  0.07775565  0.99304969    -0.11000
C611        C  0.30744361  0.06388706  0.02483097    -0.01000
C612        C  0.28997489  0.03318186  0.02592907    -0.06200
H613        H  0.32329846  0.01684338  0.93694985     0.06300
H614        H  0.30327100  0.07684309  0.05014307     0.09700
Br615      Br  0.23358263  0.98051784  0.94277626    -0.05900
Br616      Br  0.30484572  0.92733296  0.06385359    -0.02800
Br617      Br  0.36529235  0.07747172  0.91097051     0.00000
Br618      Br  0.25887392  0.01544753  0.07171025    -0.04300
C619        C  0.16809072  0.65216487  0.00869309    -0.11700
C620        C  0.15139014  0.63195804  0.97288978     0.03700
C621        C  0.14794768  0.60379497  0.97321772    -0.12300
C622        C  0.16080843  0.59536198  0.00906424     0.18600
C623        C  0.17639324  0.61525452  0.04600925    -0.09300
C624        C  0.17990286  0.64333252  0.04548780    -0.02300
H625        H  0.13633413  0.58887204  0.94426459     0.05100
C626        C  0.16149351  0.56773528  0.00379167     0.20600
H627        H  0.19303190  0.65883522  0.07292740     0.10300
C628        C  0.17844372  0.56585170  0.96705986    -0.15700
C629        C  0.18296988  0.54197017  0.96412249     0.03300
C630        C  0.17088438  0.51960545  0.99880290    -0.11000
C631        C  0.15204607  0.52032272  0.03353840    -0.01000
C632        C  0.14714455  0.54415074  0.03592618    -0.06200
H633        H  0.18885622  0.58344931  0.94123661     0.06300
H634        H  0.14203683  0.50296804  0.05979722     0.09700
Br635      Br  0.19585521  0.60644667  0.09553666    -0.05900
Br636      Br  0.13591324  0.64293206  0.92004024    -0.02800
Br637      Br  0.20519223  0.54044212  0.91121254     0.00000
Br638      Br  0.12092387  0.54406215  0.08325014    -0.04300
C639        C  0.34297764  0.81854802  0.98931294    -0.11700
C640        C  0.36651140  0.84430004  0.96907282     0.03700
C641        C  0.39484810  0.84792787  0.96778081    -0.12300
C642        C  0.40023845  0.82633682  0.98636820     0.18600
C643        C  0.37692325  0.80093116  0.00678954    -0.09300
C644        C  0.34885539  0.79730116  0.00825499    -0.02300
H645        H  0.41268214  0.86750024  0.95177472     0.05100
C646        C  0.42994115  0.82983292  0.98407464     0.20600
H647        H  0.33140972  0.77743960  0.02424675     0.10300
C648        C  0.44625736  0.83551967  0.02617810    -0.15700
C649        C  0.47149961  0.83305406  0.02759072     0.03300
C650        C  0.48072892  0.82475967  0.98640724    -0.11000
C651        C  0.46535923  0.82063663  0.94370051    -0.01000
C652        C  0.44023611  0.82331406  0.94220132    -0.06200
H653        H  0.43840509  0.84030996  0.05865656     0.06300
H654        H  0.47227799  0.81420304  0.91185191     0.09700
Br655      Br  0.38201569  0.76984671  0.03171791    -0.05900
Br656      Br  0.36136200  0.87448917  0.94033373    -0.02800
Br657      Br  0.49086078  0.83818552  0.08758898     0.00000
Br658      Br  0.41937797  0.81550802  0.88319662    -0.04300
C659        C  0.66983460  0.92303967  0.00291681    -0.11700
C660        C  0.66651098  0.94182692  0.97085642     0.03700
C661        C  0.68511780  0.97215375  0.97377485    -0.12300
C662        C  0.70732727  0.98453490  0.00811550     0.18600
C663        C  0.71109128  0.96588229  0.03970499    -0.09300
C664        C  0.69259413  0.93534533  0.03657481    -0.02300
H665        H  0.68197998  0.98628117  0.94938465     0.05100
C666        C  0.72480400  0.01698622  0.01138365     0.20600
H667        H  0.69539313  0.92124769  0.06149577     0.10300
C668        C  0.72063593  0.03102706  0.05050038    -0.15700
C669        C  0.73267497  0.06152139  0.05081121     0.03300
C670        C  0.74876313  0.07837115  0.01126133    -0.11000
C671        C  0.75442149  0.06462088  0.97343084    -0.01000
C672        C  0.74258282  0.03415488  0.97322615    -0.06200
H673        H  0.70718263  0.01813351  0.08018255     0.06300
H674        H  0.76721287  0.07748095  0.94320033     0.09700
Br675      Br  0.74097861  0.98105992  0.08765643    -0.05900
Br676      Br  0.63767116  0.92753162  0.92106476    -0.02800
Br677      Br  0.72730869  0.07939712  0.10635671     0.00000
Br678      Br  0.75084275  0.01688945  0.91972995    -0.04300
C679        C  0.92185542  0.25435510  0.00043565    -0.11700
C680        C  0.93530974  0.24081046  0.02513354     0.03700
C681        C  0.96600778  0.25374872  0.02482307    -0.12300
C682        C  0.98369383  0.28012432  0.00040844     0.18600
C683        C  0.97036294  0.29329774  0.97500430    -0.09300
C684        C  0.93983490  0.28048276  0.97521459    -0.02300
H685        H  0.97618717  0.24376861  0.04511415     0.05100
C686        C  0.01601819  0.29542621  0.00534333     0.20600
H687        H  0.93010179  0.29117824  0.95569901     0.10300
C688        C  0.03288527  0.28885817  0.97453529    -0.15700
C689        C  0.06368422  0.30591634  0.97462421     0.03300
C690        C  0.07792985  0.33015998  0.00569656    -0.11000
C691        C  0.06085550  0.33577018  0.03774182    -0.01000
C692        C  0.03026473  0.31856252  0.03797399    -0.06200
H693        H  0.02203017  0.27113107  0.94916540     0.06300
H694        H  0.07136875  0.35409807  0.06213931     0.09700
Br695      Br  0.99321966  0.32938309  0.94067921    -0.05900
Br696      Br  0.91347854  0.20629581  0.06340647    -0.02800
Br697      Br  0.08479161  0.29671688  0.92874309     0.00000
Br698      Br  0.00855545  0.32813217  0.08214167    -0.04300
C699        C  0.65270701  0.17292874  0.00372890    -0.11700
C700        C  0.64266349  0.18398035  0.04030183     0.03700
C701        C  0.61457515  0.18043101  0.03789297    -0.12300
C702        C  0.59582950  0.16559645  0.99968505     0.18600
C703        C  0.60514444  0.15290075  0.96461394    -0.09300
C704        C  0.63339394  0.15652756  0.96694565    -0.02300
H705        H  0.60768401  0.19017051  0.06522089     0.05100
C706        C  0.56824144  0.16652359  0.99490023     0.20600
H707        H  0.64076178  0.14773415  0.93878465     0.10300
C708        C  0.56587494  0.18290571  0.95755225    -0.15700
C709        C  0.54229195  0.18799685  0.95527834     0.03300
C710        C  0.52034956  0.17647922  0.99072507    -0.11000
C711        C  0.52194375  0.15893255  0.02689346    -0.01000
C712        C  0.54581630  0.15419568  0.02950543    -0.06200
H713        H  0.58302316  0.19265612  0.93088307     0.06300
H714        H  0.50528748  0.15001412  0.05444309     0.09700
Br715      Br  0.58026566  0.13097772  0.91253576    -0.05900
Br716      Br  0.66645263  0.20395987  0.09454834    -0.02800
Br717      Br  0.54104400  0.21068783  0.90278953     0.00000
Br718      Br  0.54728994  0.13144692  0.08160337    -0.04300
C719        C  0.92239513  0.66666430  0.02047703    -0.11700
C720        C  0.94157369  0.65834180  0.04142207     0.03700
C721        C  0.97185681  0.67791974  0.04164484    -0.12300
C722        C  0.98379462  0.70608538  0.02202035     0.18600
C723        C  0.96475732  0.71505525  0.00339837    -0.09300
C724        C  0.93436944  0.69544876  0.00278313    -0.02300
H725        H  0.98631220  0.67089358  0.05643314     0.05100
C726        C  0.01617526  0.72442423  0.01771127     0.20600
H727        H  0.92016113  0.70250695  0.98712657     0.10300
C728        C  0.02902619  0.72869962  0.97247071    -0.15700
C729        C  0.05948753  0.74178516  0.96729643     0.03300
C730        C  0.07763773  0.75085289  0.00776763    -0.11000
C731        C  0.06497281  0.74778374  0.05287063    -0.01000
C732        C  0.03447215  0.73472935  0.05808102    -0.06200
H733        H  0.01520770  0.72074268  0.94118567     0.06300
H734        H  0.07876242  0.75464305  0.08425036     0.09700
Br735      Br  0.97936643  0.75390342  0.97874447    -0.05900
Br736      Br  0.92816862  0.62106027  0.07189008    -0.02800
Br737      Br  0.07528419  0.74587359  0.90446825     0.00000
Br738      Br  0.01871717  0.73108362  0.12089651    -0.04300
C739        C  0.74996668  0.66963067  0.00590281    -0.11700
C740        C  0.74502032  0.67934281  0.04965018     0.03700
C741        C  0.73260567  0.69747134  0.05057448    -0.12300
C742        C  0.72448203  0.70582153  0.00820527     0.18600
C743        C  0.73093102  0.69721382  0.96432940    -0.09300
C744        C  0.74350159  0.67924837  0.96355135    -0.02300
H745        H  0.72817194  0.70411616  0.08456916     0.05100
C746        C  0.70695871  0.72096794  0.01045678     0.20600
H747        H  0.74750704  0.67208137  0.92970458     0.10300
C748        C  0.71763148  0.74887357  0.98983066    -0.15700
C749        C  0.70027492  0.76225099  0.98784566     0.03300
C750        C  0.67158565  0.74778745  0.00728804    -0.11000
C751        C  0.66153866  0.72032484  0.02933355    -0.01000
C752        C  0.67873144  0.70699118  0.03105185    -0.06200
H753        H  0.73932406  0.75997956  0.97401066     0.06300
H754        H  0.63979497  0.70876368  0.04495196     0.09700
Br755      Br  0.72134969  0.70769839  0.90436661    -0.05900
Br756      Br  0.75353733  0.66697031  0.10881166    -0.02800
Br757      Br  0.71624458  0.79899093  0.95477374     0.00000
Br758      Br  0.66162714  0.66873612  0.05969342    -0.04300
C759        C  0.82512337  0.47831036  0.99382898    -0.11700
C760        C  0.81818711  0.45920505  0.03285723     0.03700
C761        C  0.82335362  0.43572570  0.03043111    -0.12300
C762        C  0.83576462  0.43100252  0.98960759     0.18600
C763        C  0.84429402  0.45117253  0.95152048    -0.09300
C764        C  0.83890787  0.47463245  0.95387234    -0.02300
H765        H  0.81656508  0.42038961  0.05988605     0.05100
C766        C  0.83564607  0.40288343  0.98548194     0.20600
H767        H  0.84458675  0.48942778  0.92384084     0.10300
C768        C  0.81799367  0.38284632  0.95037245    -0.15700
C769        C  0.81279244  0.35412210  0.95019443     0.03300
C770        C  0.82477334  0.34475121  0.98624701    -0.11000
C771        C  0.84401311  0.36520098  0.01950203    -0.01000
C772        C  0.84950600  0.39411878  0.01936942    -0.06200
H773        H  0.80731920  0.38925402  0.92393713     0.06300
H774        H  0.85385426  0.35837550  0.04679433     0.09700
Br775      Br  0.86315779  0.44745933  0.89568424    -0.05900
Br776      Br  0.80152658  0.46432639  0.09021173    -0.02800
Br777      Br  0.78972363  0.32866160  0.89933995     0.00000
Br778      Br  0.87576533  0.42065910  0.06641213    -0.04300
C779        C  0.65370272  0.47965292  0.98905870    -0.11700
C780        C  0.63193339  0.48044724  0.01742820     0.03700
C781        C  0.60347332  0.45594442  0.01904810    -0.12300
C782        C  0.59613569  0.43088235  0.99189252     0.18600
C783        C  0.61720365  0.43094848  0.96113746    -0.09300
C784        C  0.64566798  0.45502352  0.96018668    -0.02300
H785        H  0.58729262  0.45605012  0.04269464     0.05100
C786        C  0.56768872  0.40361441  0.99903300     0.20600
H787        H  0.66185924  0.45416454  0.93753454     0.10300
C788        C  0.54519607  0.39527660  0.96542398    -0.15700
C789        C  0.52040698  0.36702393  0.96632982     0.03300
C790        C  0.51825971  0.34654899  0.00082769    -0.11000
C791        C  0.54010506  0.35554334  0.03582024    -0.01000
C792        C  0.56448250  0.38387875  0.03546958    -0.06200
H793        H  0.54759558  0.41031406  0.93713949     0.06300
H794        H  0.53857798  0.34015803  0.06286644     0.09700
Br795      Br  0.60852883  0.39782244  0.92181537    -0.05900
Br796      Br  0.63999454  0.51314587  0.05728601    -0.02800
Br797      Br  0.49175035  0.35676348  0.91701284     0.00000
Br798      Br  0.59380807  0.39406177  0.08369632    -0.04300
C799        C  0.44193049  0.30707699  0.14848460    -0.11700
C800        C  0.46683820  0.31711071  0.17797044     0.03700
C801        C  0.47164628  0.33681513  0.21482206    -0.12300
C802        C  0.45177470  0.34655867  0.22360301     0.18600
C803        C  0.42714930  0.33699846  0.19367300    -0.09300
C804        C  0.42256727  0.31763711  0.15614471    -0.02300
H805        H  0.49098038  0.34453327  0.23692014     0.05100
C806        C  0.45790160  0.36757335  0.26297564     0.20600
H807        H  0.40318997  0.30986970  0.13414071     0.10300
C808        C  0.46560886  0.39644218  0.25196715    -0.15700
C809        C  0.47304900  0.41753921  0.28759005     0.03300
C810        C  0.47285488  0.40980958  0.33629575    -0.11000
C811        C  0.46490529  0.38059171  0.34690705    -0.01000
C812        C  0.45763957  0.35969597  0.31092092    -0.06200
H813        H  0.46617208  0.40270983  0.21506523     0.06300
H814        H  0.46437292  0.37379522  0.38344718     0.09700
Br815      Br  0.39821942  0.34823651  0.20461326    -0.05900
Br816      Br  0.49555244  0.30535833  0.16867514    -0.02800
Br817      Br  0.48310951  0.45602105  0.26507114     0.00000
Br818      Br  0.44694519  0.32048360  0.32917902    -0.04300
C819        C  0.43225916  0.30092830  0.84170774    -0.11700
C820        C  0.41826529  0.31776872  0.84120288     0.03700
C821        C  0.42573552  0.33934638  0.80615485    -0.12300
C822        C  0.44732796  0.34470662  0.77206202     0.18600
C823        C  0.46155308  0.32823801  0.77299874    -0.09300
C824        C  0.45375062  0.30637313  0.80724290    -0.02300
H825        H  0.41470337  0.35199568  0.80544832     0.05100
C826        C  0.45470741  0.36730606  0.73525024     0.20600
H827        H  0.46510675  0.29402437  0.80764613     0.10300
C828        C  0.47909202  0.39534327  0.74173941    -0.15700
C829        C  0.48777544  0.41673776  0.70617507     0.03300
C830        C  0.47181679  0.41014915  0.66315906    -0.11000
C831        C  0.44733207  0.38193614  0.65699030    -0.01000
C832        C  0.43871442  0.36063025  0.69262736    -0.06200
H833        H  0.49174832  0.40038480  0.77426564     0.06300
H834        H  0.43470157  0.37646030  0.62439514     0.09700
Br835      Br  0.49198272  0.33509234  0.72846518    -0.05900
Br836      Br  0.38817087  0.31151913  0.88605309    -0.02800
Br837      Br  0.52270954  0.45363441  0.71735479     0.00000
Br838      Br  0.40537596  0.32247840  0.68138428    -0.04300
C839        C  0.59241173  0.52647186  0.33816919    -0.11700
C840        C  0.62242124  0.54835778  0.34102493     0.03700
C841        C  0.64096345  0.55353066  0.30209293    -0.12300
C842        C  0.63029316  0.53736181  0.26001453     0.18600
C843        C  0.60053294  0.51553228  0.25705131    -0.09300
C844        C  0.58188234  0.51037689  0.29575320    -0.02300
H845        H  0.66389997  0.57033910  0.30457918     0.05100
C846        C  0.65080091  0.54302480  0.22021710     0.20600
H847        H  0.55899520  0.49353681  0.29268605     0.10300
C848        C  0.65838537  0.52178908  0.20890025    -0.15700
C849        C  0.67888173  0.52697997  0.17317444     0.03300
C850        C  0.69212662  0.55383761  0.14817856    -0.11000
C851        C  0.68388753  0.57469751  0.15841044    -0.01000
C852        C  0.66355639  0.56958711  0.19445827    -0.06200
H853        H  0.64853176  0.50122852  0.22831567     0.06300
H854        H  0.69393252  0.59536134  0.13926896     0.09700
Br855      Br  0.58420894  0.49270970  0.20047908    -0.05900
Br856      Br  0.63941707  0.57327407  0.39537353    -0.02800
Br857      Br  0.68719769  0.49629804  0.15858450     0.00000
Br858      Br  0.65396293  0.59950806  0.20720284    -0.04300
C859        C  0.70114671  0.57064284  0.84377468    -0.11700
C860        C  0.68529687  0.58569892  0.84433720     0.03700
C861        C  0.66387018  0.57953667  0.80965250    -0.12300
C862        C  0.65769242  0.55827395  0.77465087     0.18600
C863        C  0.67323573  0.54305681  0.77441757    -0.09300
C864        C  0.69487989  0.54946351  0.80848683    -0.02300
H865        H  0.65213096  0.59150334  0.80972301     0.05100
C866        C  0.63572877  0.55270568  0.73745777     0.20600
H867        H  0.70639231  0.53726788  0.80809917     0.10300
C868        C  0.64539952  0.56222909  0.69103475    -0.15700
C869        C  0.62549048  0.55519127  0.65365516     0.03300
C870        C  0.59484313  0.53802689  0.66246990    -0.11000
C871        C  0.58539486  0.52999868  0.70989712    -0.01000
C872        C  0.60549268  0.53691158  0.74704998    -0.06200
H873        H  0.66874217  0.57487928  0.68373880     0.06300
H874        H  0.56223388  0.51767506  0.71822643     0.09700
Br875      Br  0.66478178  0.51249373  0.72932903    -0.05900
Br876      Br  0.69292215  0.61584152  0.88971068    -0.02800
Br877      Br  0.64253995  0.57096067  0.59257712     0.00000
Br878      Br  0.59077513  0.52295736  0.80987676    -0.04300
C879        C  0.56365813  0.69552421  0.15000833    -0.11700
C880        C  0.55193356  0.66545480  0.13883532     0.03700
C881        C  0.54543062  0.64504501  0.17542084    -0.12300
C882        C  0.55008541  0.65389893  0.22304738     0.18600
C883        C  0.56224491  0.68368319  0.23435113    -0.09300
C884        C  0.56901775  0.70418276  0.19806763    -0.02300
H885        H  0.53599192  0.62200909  0.16679959     0.05100
C886        C  0.54171098  0.63176392  0.26077476     0.20600
H887        H  0.57814610  0.72702569  0.20772438     0.10300
C888        C  0.56178818  0.62321497  0.27488745    -0.15700
C889        C  0.55493139  0.60314771  0.31198912     0.03300
C890        C  0.52779349  0.59167317  0.33556907    -0.11000
C891        C  0.50761615  0.60003276  0.32128056    -0.01000
C892        C  0.51431540  0.61981633  0.28374671    -0.06200
H893        H  0.58289994  0.63239551  0.25730109     0.06300
H894        H  0.48657474  0.59097048  0.33906628     0.09700
Br895      Br  0.56929614  0.69717169  0.29900901    -0.05900
Br896      Br  0.54209217  0.64998700  0.07544379    -0.02800
Br897      Br  0.58352480  0.59267961  0.33033408     0.00000
Br898      Br  0.48545421  0.62975338  0.26472891    -0.04300
C899        C  0.57461251  0.70199189  0.84208468    -0.11700
C900        C  0.58492567  0.71004914  0.79484399     0.03700
C901        C  0.57690499  0.68836532  0.76014299    -0.12300
C902        C  0.55877025  0.65865505  0.77147413     0.18600
C903        C  0.55005777  0.65041651  0.81895063    -0.09300
C904        C  0.55792567  0.67199896  0.85374164    -0.02300
H905        H  0.58434728  0.69474205  0.72383049     0.05100
C906        C  0.54907299  0.63670289  0.73306533     0.20600
H907        H  0.54996457  0.66523487  0.88972181     0.10300
C908        C  0.56981090  0.63155049  0.71068098    -0.15700
C909        C  0.56147701  0.61120860  0.67375516     0.03300
C910        C  0.53203421  0.59566375  0.65892450    -0.11000
C911        C  0.51128932  0.60100045  0.68078110    -0.01000
C912        C  0.51966861  0.62161573  0.71743849    -0.06200
H913        H  0.59251496  0.64334923  0.72207685     0.06300
H914        H  0.48864359  0.58928520  0.66907656     0.09700
Br915      Br  0.52724961  0.61000124  0.83780625    -0.05900
Br916      Br  0.61042930  0.74997852  0.77517207    -0.02800
Br917      Br  0.59092830  0.60522195  0.64455491     0.00000
Br918      Br  0.49059005  0.62928548  0.74386359    -0.04300
C919        C  0.40844548  0.47066032  0.33680728    -0.11700
C920        C  0.37932608  0.44687126  0.34047072     0.03700
C921        C  0.35970709  0.44056850  0.30280108    -0.12300
C922        C  0.36855491  0.45738344  0.26108515     0.18600
C923        C  0.39766084  0.48053970  0.25669814    -0.09300
C924        C  0.41737354  0.48692529  0.29423327    -0.02300
H925        H  0.33734658  0.42253678  0.30613018     0.05100
C926        C  0.34670160  0.45148493  0.22359069     0.20600
H927        H  0.43964002  0.50506248  0.29042605     0.10300
C928        C  0.33510461  0.47015789  0.21960330    -0.15700
C929        C  0.31406704  0.46524088  0.18511107     0.03300
C930        C  0.30431601  0.44122042  0.15377627    -0.11000
C931        C  0.31629103  0.42278318  0.15730859    -0.01000
C932        C  0.33717046  0.42760390  0.19223846    -0.06200
H933        H  0.34253951  0.48869763  0.24343579     0.06300
H934        H  0.30899072  0.40428812  0.13342527     0.09700
Br935      Br  0.41127777  0.50389964  0.19998601    -0.05900
Br936      Br  0.36522927  0.42103149  0.39441718    -0.02800
Br937      Br  0.30071625  0.49301483  0.18082026     0.00000
Br938      Br  0.35219844  0.40123955  0.19574251    -0.04300
C939        C  0.40825985  0.47306983  0.66211267    -0.11700
C940        C  0.40924365  0.45879421  0.70415729     0.03700
C941        C  0.38783832  0.45123943  0.73923877    -0.12300
C942        C  0.36542560  0.45786904  0.73374520     0.18600
C943        C  0.36482760  0.47287587  0.69266732    -0.09300
C944        C  0.38581285  0.47986084  0.65691765    -0.02300
H945        H  0.38861799  0.44002644  0.77107507     0.05100
C946        C  0.34387622  0.45026348  0.77252842     0.20600
H947        H  0.38502963  0.49134614  0.62545590     0.10300
C948        C  0.35369131  0.46411401  0.81664056    -0.15700
C949        C  0.33400660  0.45857722  0.85387091     0.03300
C950        C  0.30375823  0.43863687  0.84725276    -0.11000
C951        C  0.29412578  0.42420390  0.80333128    -0.01000
C952        C  0.31392207  0.42959980  0.76630296    -0.06200
H953        H  0.37675181  0.47996093  0.82167848     0.06300
H954        H  0.27105530  0.40859874  0.79778549     0.09700
Br955      Br  0.33699684  0.48594064  0.68527908    -0.05900
Br956      Br  0.43818449  0.44765984  0.71561272    -0.02800
Br957      Br  0.34980796  0.48097549  0.91090630     0.00000
Br958      Br  0.29911983  0.40772740  0.70844407    -0.04300
C959        C  0.86415271  0.55841321  0.15455630    -0.11700
C960        C  0.88052797  0.54441431  0.14467714     0.03700
C961        C  0.89375506  0.53774017  0.18196660    -0.12300
C962        C  0.89071505  0.54433775  0.22909542     0.18600
C963        C  0.87501008  0.55870956  0.23905382    -0.09300
C964        C  0.86194468  0.56562559  0.20201716    -0.02300
H965        H  0.90604747  0.52680847  0.17430811     0.05100
C966        C  0.90494652  0.53692911  0.26728556     0.20600
H967        H  0.84980845  0.57658996  0.21058059     0.10300
C968        C  0.93534522  0.55422186  0.27266409    -0.15700
C969        C  0.94973765  0.54837347  0.30889986     0.03300
C970        C  0.93359078  0.52495116  0.34071425    -0.11000
C971        C  0.90307053  0.50755031  0.33524564    -0.01000
C972        C  0.88872998  0.51315105  0.29832782    -0.06200
H973        H  0.94787244  0.57255099  0.24882114     0.06300
H974        H  0.89051009  0.48922247  0.35905354     0.09700
Br975      Br  0.87107624  0.56958228  0.30260958    -0.05900
Br976      Br  0.88437436  0.53184186  0.08230565    -0.02800
Br977      Br  0.99119525  0.57415616  0.31467447     0.00000
Br978      Br  0.84731595  0.48733201  0.29028519    -0.04300
C979        C  0.93875951  0.52650657  0.66600373    -0.11700
C980        C  0.90835869  0.51188760  0.67427001     0.03700
C981        C  0.89713508  0.52134780  0.71084997    -0.12300
C982        C  0.91582839  0.54546494  0.73940296     0.18600
C983        C  0.94643897  0.55931853  0.73234953    -0.09300
C984        C  0.95763929  0.54968787  0.69589729    -0.02300
H985        H  0.87365302  0.50993433  0.71694308     0.05100
C986        C  0.90264493  0.55536849  0.77629107     0.20600
H987        H  0.98114802  0.56086350  0.69000216     0.10300
C988        C  0.90758137  0.55255908  0.82445607    -0.15700
C989        C  0.89293984  0.55865470  0.86030135     0.03300
C990        C  0.87250958  0.56770871  0.84801076    -0.11000
C991        C  0.86857542  0.57145711  0.79945167    -0.01000
C992        C  0.88333104  0.56540501  0.76393841    -0.06200
H993        H  0.92224026  0.54460415  0.83421717     0.06300
H994        H  0.85357521  0.57878308  0.78869982     0.09700
Br995      Br  0.97379630  0.59225146  0.76970024    -0.05900
Br996      Br  0.88161961  0.47807142  0.63806154    -0.02800
Br997      Br  0.90124440  0.55225279  0.92441787     0.00000
Br998      Br  0.87633442  0.57123050  0.69887323    -0.04300
C999        C  0.86271469  0.30583905  0.15149742    -0.11700
C1000       C  0.89370498  0.32267030  0.15267426     0.03700
C1001       C  0.90769340  0.34422713  0.18773706    -0.12300
C1002       C  0.89131024  0.34952999  0.22151185     0.18600
C1003       C  0.86050428  0.33324879  0.21971179    -0.09300
C1004       C  0.84649631  0.31154262  0.18516677    -0.02300
H1005       H  0.93145047  0.35656243  0.18922180     0.05100
C1006       C  0.90658262  0.37087610  0.26010405     0.20600
H1007       H  0.82272330  0.29911643  0.18450847     0.10300
C1008       C  0.91241696  0.39979035  0.25543422    -0.15700
C1009       C  0.92617719  0.42017409  0.29216505     0.03300
C1010       C  0.93447788  0.41161489  0.33450290    -0.11000
C1011       C  0.92830434  0.38250858  0.33892231    -0.01000
C1012       C  0.91450082  0.36226319  0.30227824    -0.06200
H1013       H  0.90587960  0.40638941  0.22332610     0.06300
H1014       H  0.93446861  0.37546748  0.37093929     0.09700
Br1015     Br  0.83669205  0.33949776  0.26440326    -0.05900
Br1016     Br  0.91808858  0.31602827  0.10960187    -0.02800
Br1017     Br  0.93108637  0.45853730  0.28326712     0.00000
Br1018     Br  0.90632708  0.32283687  0.31171504    -0.04300
C1019       C  0.87150516  0.30093144  0.84612619    -0.11700
C1020       C  0.89757887  0.32763179  0.85728816     0.03700
C1021       C  0.91275811  0.34823297  0.82129934    -0.12300
C1022       C  0.90265289  0.34302461  0.77424997     0.18600
C1023       C  0.87740047  0.31635742  0.76280360    -0.09300
C1024       C  0.86218653  0.29572267  0.79834257    -0.02300
H1025       H  0.93242984  0.36866276  0.83012786     0.05100
C1026       C  0.91809993  0.36577305  0.73746030     0.20600
H1027       H  0.84243801  0.27571695  0.78829614     0.10300
C1028       C  0.93217915  0.36023240  0.69991773    -0.15700
C1029       C  0.94448270  0.37997646  0.66200793     0.03300
C1030       C  0.94314665  0.40602701  0.66167512    -0.11000
C1031       C  0.93009706  0.41207885  0.70030043    -0.01000
C1032       C  0.91739839  0.39211572  0.73779785    -0.06200
H1033       H  0.93310032  0.34015969  0.69973500     0.06300
H1034       H  0.92903728  0.43208033  0.70065875     0.09700
Br1035     Br  0.86182435  0.30762684  0.69939738    -0.05900
Br1036     Br  0.91425214  0.33820815  0.92004012    -0.02800
Br1037     Br  0.96377360  0.37072947  0.61285975     0.00000
Br1038     Br  0.89781328  0.40098950  0.78706014    -0.04300
C1039       C  0.06642614  0.47714595  0.33572447    -0.11700
C1040       C  0.09704268  0.48956270  0.33117947     0.03700
C1041       C  0.10834812  0.47969100  0.29533506    -0.12300
C1042       C  0.08954949  0.45779737  0.26355008     0.18600
C1043       C  0.05902802  0.44573335  0.26757222    -0.09300
C1044       C  0.04771540  0.45556805  0.30332908    -0.02300
H1045       H  0.13190149  0.48939170  0.29177305     0.05100
C1046       C  0.10229889  0.44823210  0.22594178     0.20600
H1047       H  0.02412807  0.44572242  0.30667193     0.10300
C1048       C  0.11470880  0.43109746  0.23815626    -0.15700
C1049       C  0.12839019  0.42293666  0.20376509     0.03300
C1050       C  0.12959236  0.43191128  0.15587207    -0.11000
C1051       C  0.11627398  0.44839117  0.14374252    -0.01000
C1052       C  0.10311286  0.45690373  0.17845601    -0.06200
H1053       H  0.11404099  0.42434981  0.27479336     0.06300
H1054       H  0.11736834  0.45597467  0.10755973     0.09700
Br1055     Br  0.03199857  0.41517720  0.22605267    -0.05900
Br1056     Br  0.12432651  0.52131035  0.37058632    -0.02800
Br1057     Br  0.14461290  0.39940988  0.22507428     0.00000
Br1058     Br  0.08840296  0.48215742  0.16038770    -0.04300
C1059       C  0.13070032  0.43477324  0.84684810    -0.11700
C1060       C  0.11348682  0.44789871  0.85640793     0.03700
C1061       C  0.09925232  0.45324310  0.81906490    -0.12300
C1062       C  0.10181468  0.44583513  0.77219145     0.18600
C1063       C  0.11815256  0.43208222  0.76264023    -0.09300
C1064       C  0.13233792  0.42660492  0.79974221    -0.02300
H1065       H  0.08678272  0.46403253  0.82638735     0.05100
C1066       C  0.08858336  0.45401580  0.73335298     0.20600
H1067       H  0.14507101  0.41622501  0.79149257     0.10300
C1068       C  0.10700510  0.47675701  0.70226624    -0.15700
C1069       C  0.09526516  0.48517363  0.66504569     0.03300
C1070       C  0.06463339  0.47109730  0.65935696    -0.11000
C1071       C  0.04620606  0.44852721  0.69069502    -0.01000
C1072       C  0.05799285  0.43964002  0.72715639    -0.06200
H1073       H  0.13058629  0.48796799  0.70706440     0.06300
H1074       H  0.02259932  0.43732192  0.68605294     0.09700
Br1075     Br  0.12164739  0.42048392  0.69936220    -0.05900
Br1076     Br  0.11011295  0.46132295  0.91830395    -0.02800
Br1077     Br  0.12177941  0.51681063  0.62444720     0.00000
Br1078     Br  0.03171461  0.40678394  0.76582469    -0.04300
C1079       C  0.06533928  0.59370391  0.34126075    -0.11700
C1080       C  0.07808137  0.58766244  0.30194704     0.03700
C1081       C  0.09065358  0.60821493  0.26531433    -0.12300
C1082       C  0.09057746  0.63470354  0.26713826     0.18600
C1083       C  0.07796918  0.64085286  0.30625372    -0.09300
C1084       C  0.06570625  0.62049700  0.34326825    -0.02300
H1085       H  0.10085776  0.60371998  0.23553704     0.05100
C1086       C  0.10542239  0.65647525  0.22930559     0.20600
H1087       H  0.05586384  0.62531109  0.37320439     0.10300
C1088       C  0.08893684  0.65894072  0.19240292    -0.15700
C1089       C  0.10269064  0.67949297  0.15588552     0.03300
C1090       C  0.13350450  0.69816644  0.15657212    -0.11000
C1091       C  0.14975011  0.69555313  0.19407691    -0.01000
C1092       C  0.13599532  0.67481343  0.22999923    -0.06200
H1093       H  0.06530158  0.64478854  0.19205130     0.06300
H1094       H  0.17341861  0.70936793  0.19510971     0.09700
Br1095     Br  0.07749662  0.67693017  0.31053021    -0.05900
Br1096     Br  0.08057588  0.55264793  0.29774642    -0.02800
Br1097     Br  0.07799806  0.68148299  0.10755439     0.00000
Br1098     Br  0.15972375  0.67218849  0.27944752    -0.04300
C1099       C  0.05367026  0.59087212  0.66527154    -0.11700
C1100       C  0.05138962  0.61642852  0.66427290     0.03700
C1101       C  0.06271846  0.63642703  0.70187084    -0.12300
C1102       C  0.07646641  0.63145254  0.74049385     0.18600
C1103       C  0.07794045  0.60556904  0.74225473    -0.09300
C1104       C  0.06630567  0.58537276  0.70504275    -0.02300
H1105       H  0.06146880  0.65630846  0.70047702     0.05100
C1106       C  0.09174088  0.65474649  0.77616845     0.20600
H1107       H  0.06811907  0.56580206  0.70637818     0.10300
C1108       C  0.07936201  0.65216627  0.82129394    -0.15700
C1109       C  0.09453713  0.67319524  0.85665345     0.03300
C1110       C  0.12282599  0.69745269  0.84680123    -0.11000
C1111       C  0.13447996  0.70008582  0.80068865    -0.01000
C1112       C  0.11933428  0.67905105  0.76581310    -0.06200
H1113       H  0.05796750  0.63346081  0.82920554     0.06300
H1114       H  0.15607829  0.71811109  0.79180827     0.09700
Br1115     Br  0.09744915  0.59792158  0.79311649    -0.05900
Br1116     Br  0.03237026  0.62481027  0.61343497    -0.02800
Br1117     Br  0.07491709  0.66705546  0.91679896     0.00000
Br1118     Br  0.13804121  0.68351532  0.70523968    -0.04300
C1119       C  0.30525463  0.86782417  0.14768813    -0.11700
C1120       C  0.33574855  0.88214124  0.13788770     0.03700
C1121       C  0.35596495  0.89606370  0.17468348    -0.12300
C1122       C  0.34649505  0.89622077  0.22119761     0.18600
C1123       C  0.31631503  0.88342415  0.23054363    -0.09300
C1124       C  0.29604958  0.86919613  0.19414459    -0.02300
H1125       H  0.37924498  0.90637444  0.16718848     0.05100
C1126       C  0.36840832  0.91026849  0.25940426     0.20600
H1127       H  0.27287562  0.85903549  0.20237194     0.10300
C1128       C  0.38651099  0.94082780  0.25922924    -0.15700
C1129       C  0.40675062  0.95506537  0.29574775     0.03300
C1130       C  0.40891613  0.93860952  0.33356878    -0.11000
C1131       C  0.39102598  0.90792723  0.33330614    -0.01000
C1132       C  0.37121190  0.89367170  0.29619783    -0.06200
H1133       H  0.38452943  0.95369502  0.23091217     0.06300
H1134       H  0.39288639  0.89497177  0.36159443     0.09700
Br1135     Br  0.30176007  0.88537817  0.29224018    -0.05900
Br1136     Br  0.35169809  0.88240406  0.07633848    -0.02800
Br1137     Br  0.42942447  0.99707174  0.29333025     0.00000
Br1138     Br  0.34929895  0.85154022  0.29615218    -0.04300
C1139       C  0.29867400  0.86443635  0.83958807    -0.11700
C1140       C  0.31723342  0.89522262  0.84188484     0.03700
C1141       C  0.33772284  0.90980318  0.80569337    -0.12300
C1142       C  0.34002528  0.89417193  0.76734873     0.18600
C1143       C  0.32179458  0.86359681  0.76508730    -0.09300
C1144       C  0.30113503  0.84901115  0.80078712    -0.02300
H1145       H  0.35189784  0.93341074  0.80736973     0.05100
C1146       C  0.36226225  0.90981035  0.73059541     0.20600
H1147       H  0.28744033  0.82535421  0.79879468     0.10300
C1148       C  0.39073887  0.91521778  0.73828742    -0.15700
C1149       C  0.41203146  0.92793409  0.70281043     0.03300
C1150       C  0.40474830  0.93550615  0.65859256    -0.11000
C1151       C  0.37613674  0.93032387  0.65141127    -0.01000
C1152       C  0.35495951  0.91765723  0.68713331    -0.06200
H1153       H  0.39618937  0.90882209  0.77169664     0.06300
H1154       H  0.37027593  0.93639378  0.61808689     0.09700
Br1155     Br  0.32525224  0.84086467  0.71484643    -0.05900
Br1156     Br  0.31491356  0.91879933  0.89185459    -0.02800
Br1157     Br  0.44977152  0.93230282  0.71646732     0.00000
Br1158     Br  0.31638048  0.91141494  0.67535547    -0.04300
C1159       C  0.56576350  0.86760213  0.15412233    -0.11700
C1160       C  0.57708608  0.89824250  0.15100334     0.03700
C1161       C  0.57034501  0.91264671  0.18656832    -0.12300
C1162       C  0.55273782  0.89711859  0.22566313     0.18600
C1163       C  0.54183243  0.86676610  0.22911096    -0.09300
C1164       C  0.54839104  0.85236911  0.19376460    -0.02300
H1165       H  0.57908872  0.93610554  0.18397201     0.05100
C1166       C  0.54563236  0.91262096  0.26256445     0.20600
H1167       H  0.53922973  0.82886910  0.19691974     0.10300
C1168       C  0.52299098  0.91870682  0.25433159    -0.15700
C1169       C  0.51413508  0.93126669  0.28988861     0.03300
C1170       C  0.52826681  0.93814203  0.33471432    -0.11000
C1171       C  0.55119029  0.93230349  0.34244681    -0.01000
C1172       C  0.55989204  0.91970087  0.30693217    -0.06200
H1173       H  0.51161905  0.91290147  0.22049854     0.06300
H1174       H  0.56248579  0.93761522  0.37634146     0.09700
Br1175     Br  0.51720598  0.84382725  0.28093777    -0.05900
Br1176     Br  0.60317089  0.92188924  0.10098182    -0.02800
Br1177     Br  0.48116414  0.93622059  0.27611464     0.00000
Br1178     Br  0.59116157  0.91223074  0.32079745    -0.04300
C1179       C  0.52429163  0.93224940  0.66070849    -0.11700
C1180       C  0.51798474  0.90286821  0.65919427     0.03700
C1181       C  0.52735588  0.89171937  0.69625418    -0.12300
C1182       C  0.54270559  0.90926915  0.73535323     0.18600
C1183       C  0.54891676  0.93850192  0.73705834    -0.09300
C1184       C  0.53964201  0.94969672  0.70009476    -0.02300
H1185       H  0.52222772  0.86908496  0.69498760     0.05100
C1186       C  0.55182282  0.89656412  0.77411708     0.20600
H1187       H  0.54496528  0.97238653  0.70176818     0.10300
C1188       C  0.57558821  0.89205796  0.76679306    -0.15700
C1189       C  0.58393860  0.87884135  0.80194544     0.03300
C1190       C  0.56829196  0.86983749  0.84525665    -0.11000
C1191       C  0.54510329  0.87521950  0.85303377    -0.01000
C1192       C  0.53665535  0.88822128  0.81779122    -0.06200
H1193       H  0.58756372  0.89870916  0.73348090     0.06300
H1194       H  0.53265352  0.86811949  0.88589173     0.09700
Br1195     Br  0.57063467  0.96412485  0.78857935    -0.05900
Br1196     Br  0.49493470  0.87639262  0.60937052    -0.02800
Br1197     Br  0.61739904  0.87452547  0.78969146     0.00000
Br1198     Br  0.50324098  0.89258797  0.82995001    -0.04300
C1199       C  0.59283345  0.05981568  0.34017449    -0.11700
C1200       C  0.61907295  0.05884628  0.33919580     0.03700
C1201       C  0.63847095  0.07146310  0.30100346    -0.12300
C1202       C  0.63205603  0.08502676  0.26371829     0.18600
C1203       C  0.60573270  0.08564393  0.26432277    -0.09300
C1204       C  0.58627108  0.07293133  0.30225580    -0.02300
H1205       H  0.65873554  0.07090331  0.30046510     0.05100
C1206       C  0.65393566  0.10020526  0.22607010     0.20600
H1207       H  0.56612849  0.07373742  0.30254633     0.10300
C1208       C  0.64928952  0.08794613  0.18053428    -0.15700
C1209       C  0.66920872  0.10268967  0.14357345     0.03300
C1210       C  0.69475626  0.13025124  0.15250544    -0.11000
C1211       C  0.69899546  0.14213264  0.19871176    -0.01000
C1212       C  0.67885665  0.12750953  0.23501634    -0.06200
H1213       H  0.62981520  0.06695058  0.17362613     0.06300
H1214       H  0.71784945  0.16332073  0.20686693     0.09700
Br1215     Br  0.59618169  0.10479541  0.21523332    -0.05900
Br1216     Br  0.62872766  0.03923047  0.38734457    -0.02800
Br1217     Br  0.65927912  0.08348261  0.08269732     0.00000
Br1218     Br  0.68550423  0.14637384  0.29582816    -0.04300
C1219       C  0.58825777  0.05454778  0.66722656    -0.11700
C1220       C  0.60872183  0.04534504  0.67552016     0.03700
C1221       C  0.62901753  0.05790702  0.71259046    -0.12300
C1222       C  0.62857061  0.07897001  0.74249049     0.18600
C1223       C  0.60691027  0.08682670  0.73582052    -0.09300
C1224       C  0.58696361  0.07461476  0.69829396    -0.02300
H1225       H  0.64526663  0.05135952  0.71801343     0.05100
C1226       C  0.65222862  0.09429758  0.77779835     0.20600
H1227       H  0.57074539  0.08120492  0.69278770     0.10300
C1228       C  0.67987796  0.11594941  0.76180722    -0.15700
C1229       C  0.70253488  0.13271824  0.79379069     0.03300
C1230       C  0.69757042  0.12807270  0.84365160    -0.11000
C1231       C  0.66990032  0.10528981  0.85910855    -0.01000
C1232       C  0.64748262  0.08845277  0.82673243    -0.06200
H1233       H  0.68371186  0.12015328  0.72396579     0.06300
H1234       H  0.66531191  0.10073929  0.89668973     0.09700
Br1235     Br  0.60432527  0.11483092  0.77599070    -0.05900
Br1236     Br  0.60856476  0.01463867  0.63867634    -0.02800
Br1237     Br  0.73919842  0.16095945  0.76518549     0.00000
Br1238     Br  0.61069264  0.05768214  0.85073920    -0.04300
C1239       C  0.47662293  0.06940177  0.34058009    -0.11700
C1240       C  0.45441147  0.07691473  0.34453153     0.03700
C1241       C  0.44848578  0.09007032  0.30613375    -0.12300
C1242       C  0.46431942  0.09613303  0.26357051     0.18600
C1243       C  0.48682840  0.08933216  0.25976030    -0.09300
C1244       C  0.49268378  0.07593089  0.29786806    -0.02300
H1245       H  0.43121021  0.09540687  0.30931386     0.05100
C1246       C  0.45727815  0.11006067  0.22398681     0.20600
H1247       H  0.50990669  0.07057179  0.29402481     0.10300
C1248       C  0.47496982  0.14031848  0.21666963    -0.15700
C1249       C  0.46813751  0.15456195  0.18125190     0.03300
C1250       C  0.44301551  0.13844389  0.15253078    -0.11000
C1251       C  0.42588016  0.10795811  0.15880947    -0.01000
C1252       C  0.43271245  0.09376781  0.19451312    -0.06200
H1253       H  0.49412350  0.15291838  0.23878791     0.06300
H1254       H  0.40672942  0.09528132  0.13673782     0.09700
Br1255     Br  0.50972778  0.09745690  0.20288656    -0.05900
Br1256     Br  0.42994338  0.06834879  0.39970039    -0.02800
Br1257     Br  0.49485370  0.19577496  0.17214241     0.00000
Br1258     Br  0.40788443  0.05218836  0.20209512    -0.04300
C1259       C  0.43412127  0.13047849  0.84716291    -0.11700
C1260       C  0.41899908  0.12232187  0.80334008     0.03700
C1261       C  0.42618378  0.10769349  0.76908941    -0.12300
C1262       C  0.44791074  0.10043536  0.77799832     0.18600
C1263       C  0.46188954  0.10702680  0.82259774    -0.09300
C1264       C  0.45497724  0.12195977  0.85676289    -0.02300
H1265       H  0.41482616  0.10201156  0.73524355     0.05100
C1266       C  0.45632339  0.08686979  0.73971861     0.20600
H1267       H  0.46658174  0.12770373  0.89039356     0.10300
C1268       C  0.47808585  0.10505463  0.70705575    -0.08500
C1269       C  0.48633809  0.09305187  0.66985804     0.03300
C1270       C  0.47271803  0.06234591  0.66502372    -0.11000
C1271       C  0.45116519  0.04417180  0.69811085    -0.01000
C1272       C  0.44275976  0.05621534  0.73503343    -0.06200
H1273       H  0.48876082  0.12868120  0.71067581     0.06300
H1274       H  0.44043633  0.02052196  0.69467437     0.09700
Br1275     Br  0.49086380  0.09644502  0.83774113    -0.05900
Br1276     Br  0.38718768  0.12897018  0.78939189    -0.02800
Br1277     Br  0.51748732  0.11941296  0.62837215     0.00000
Br1278     Br  0.41239370  0.03013926  0.77781167    -0.04300
loop_ 
_geom_bond_atom_site_label_1 
_geom_bond_atom_site_label_2 
_geom_bond_distance 
_geom_bond_site_symmetry_2 
_ccdc_geom_bond_type 
O1          Zr13   2.459       .  S
O1            C3   1.290       .  A
O2          Zr39   2.403   1_545  S
O2            C3   1.281       .  A
C3         C1219   1.467       .  S
O4          Zr16   2.445       .  S
O4            C6   1.287       .  A
O5          Zr40   2.425       .  S
O5            C6   1.287       .  A
C6         C1239   1.486       .  S
O7          Zr16   2.447       .  S
O7            C9   1.289       .  A
O8          Zr39   2.419   1_545  S
O8            C9   1.285       .  A
C9         C1270   1.476       .  S
O10         Zr13   2.450       .  S
O10          C12   1.289       .  A
O11         Zr40   2.396       .  S
O11          C12   1.282       .  A
C12        C1199   1.469       .  S
Zr13         O14   2.433       .  S
Zr13         O15   2.438       .  S
Zr13         O19   2.378       .  S
Zr13         O20   2.378       .  S
Zr13         O43   2.370   1_545  S
Zr13         O45   2.363   1_545  S
O14          H57   0.990       .  S
O15          H56   0.990       .  S
O15          H60   0.990       .  S
Zr16         O17   2.435       .  S
Zr16         O18   2.431       .  S
Zr16         O20   2.372       .  S
Zr16         O19   2.375       .  S
Zr16         O44   2.368       .  S
Zr16         O46   2.378       .  S
O17          H58   0.990       .  S
O17          H61   0.990       .  S
O18          H51   0.990       .  S
O19         Zr39   2.379   1_545  S
O20         Zr40   2.384       .  S
O20          H47   0.967       .  S
O21         Zr33   2.452       .  S
O21          C23   1.291       .  A
O22         Zr40   2.419   1_565  S
O22          C23   1.285       .  A
C23        C1170   1.484       .  S
O24         Zr36   2.445       .  S
O24          C26   1.289       .  A
O25         Zr39   2.397       .  S
O25          C26   1.281       .  A
C26        C1150   1.474       .  S
O27         Zr36   2.447       .  S
O27          C29   1.289       .  A
O28         Zr40   2.418   1_565  S
O28          C29   1.285       .  A
C29        C1130   1.475       .  S
O30         Zr33   2.457       .  S
O30          C32   1.290       .  A
O31         Zr39   2.416       .  S
O31          C32   1.285       .  A
C32        C1179   1.483       .  S
Zr33         O34   2.435       .  S
Zr33         O35   2.434       .  S
Zr33         O41   2.373       .  S
Zr33         O42   2.376       .  S
Zr33         O45   2.368       .  S
Zr33         O43   2.372       .  S
O34          H54   0.990       .  S
O34          H59   0.990       .  S
O35          H55   0.990       .  S
Zr36         O37   2.434       .  S
Zr36         O38   2.434       .  S
Zr36         O42   2.379       .  S
Zr36         O41   2.372       .  S
Zr36         O46   2.375   1_565  S
Zr36         O44   2.369   1_565  S
O37          H53   0.990       .  S
O38          H52   0.990       .  S
O38          H62   0.990       .  S
Zr39         O42   2.383       .  S
Zr39         O44   2.376   1_565  S
Zr39         O45   2.380       .  S
Zr40         O41   2.382   1_545  S
Zr40         O43   2.380   1_545  S
Zr40         O46   2.373       .  S
O41          H49   0.966       .  S
O44          H48   0.966       .  S
O45          H50   0.966       .  S
O63         Zr75   2.444       .  S
O63          C65   1.288       .  A
O64        Zr101   2.408       .  S
O64          C65   1.283       .  A
C65        C1099   1.474       .  S
O66         Zr78   2.449       .  S
O66          C68   1.288       .  A
O67        Zr102   2.413   1_655  S
O67          C68   1.284       .  A
C68         C970   1.470       .  S
O69         Zr78   2.454       .  S
O69          C71   1.290       .  A
O70        Zr101   2.403   1_655  S
O70          C71   1.281       .  A
C71         C979   1.469       .  S
O72         Zr75   2.438       .  S
O72          C74   1.287       .  A
O73        Zr102   2.410       .  S
O73          C74   1.284       .  A
C74        C1079   1.469       .  S
Zr75         O76   2.433       .  S
Zr75         O77   2.436       .  S
Zr75         O81   2.369   1_455  S
Zr75         O82   2.375   1_455  S
Zr75        O105   2.371       .  S
Zr75        O107   2.370       .  S
O76         H119   0.990       .  S
O77         H118   0.990       .  S
O77         H122   0.990       .  S
Zr78         O79   2.436       .  S
Zr78         O80   2.434       .  S
Zr78         O82   2.376       .  S
Zr78         O81   2.368       .  S
Zr78        O106   2.374       .  S
Zr78        O108   2.373       .  S
O79         H120   0.990       .  S
O79         H123   0.990       .  S
O80         H113   0.990       .  S
O81        Zr101   2.372   1_655  S
O82        Zr102   2.380   1_655  S
O82         H109   0.966       .  S
O83         Zr95   2.443       .  S
O83          C85   1.287       .  A
O84        Zr102   2.413       .  S
O84          C85   1.284       .  A
C85        C1039   1.470       .  S
O86         Zr98   2.458       .  S
O86          C88   1.291       .  A
O87        Zr101   2.403   1_655  S
O87          C88   1.282       .  A
C88        C1030   1.476       .  S
O89         Zr98   2.458       .  S
O89          C91   1.292       .  A
O90        Zr102   2.411   1_655  S
O90          C91   1.283       .  A
C91        C1010   1.483       .  S
O92         Zr95   2.438       .  S
O92          C94   1.287       .  A
O93        Zr101   2.403       .  S
O93          C94   1.282       .  A
C94        C1070   1.464       .  S
Zr95         O96   2.435       .  S
Zr95         O97   2.435       .  S
Zr95        O103   2.376       .  S
Zr95        O104   2.371       .  S
Zr95        O107   2.376       .  S
Zr95        O105   2.372       .  S
O96         H116   0.990       .  S
O96         H121   0.990       .  S
O97         H117   0.990       .  S
Zr98         O99   2.434       .  S
Zr98        O100   2.434       .  S
Zr98        O104   2.370   1_655  S
Zr98        O103   2.372   1_655  S
Zr98        O108   2.376       .  S
Zr98        O106   2.376       .  S
O99         H115   0.990       .  S
O100        H114   0.990       .  S
O100        H124   0.990       .  S
Zr101       O104   2.374       .  S
Zr101       O106   2.381   1_455  S
Zr101       O107   2.381       .  S
Zr102       O103   2.382       .  S
Zr102       O105   2.379       .  S
Zr102       O108   2.380   1_455  S
O103        H111   0.966       .  S
O106        H110   0.966       .  S
O107        H112   0.966       .  S
O125       Zr137   2.447       .  S
O125        C127   1.289       .  A
O126       Zr163   2.415       .  S
O126        C127   1.284       .  A
C127        C939   1.480       .  S
O128       Zr140   2.469       .  S
O128        C130   1.294       .  A
O129       Zr164   2.402       .  S
O129        C130   1.280       .  A
C130        C810   1.498       .  S
O131       Zr140   2.442       .  S
O131        C133   1.288       .  A
O132       Zr163   2.424       .  S
O132        C133   1.286       .  A
C133        C830   1.481       .  S
O134       Zr137   2.452       .  S
O134        C136   1.290       .  A
O135       Zr164   2.422       .  S
O135        C136   1.287       .  A
C136        C919   1.483       .  S
Zr137       O138   2.432       .  S
Zr137       O139   2.434       .  S
Zr137       O143   2.372       .  S
Zr137       O144   2.374       .  S
Zr137       O167   2.373       .  S
Zr137       O169   2.370       .  S
O138        H181   0.990       .  S
O139        H180   0.990       .  S
O139        H184   0.990       .  S
Zr140       O141   2.436       .  S
Zr140       O142   2.434       .  S
Zr140       O144   2.364       .  S
Zr140       O143   2.376       .  S
Zr140       O168   2.384       .  S
Zr140       O170   2.372       .  S
O141        H182   0.990       .  S
O141        H185   0.990       .  S
O142        H175   0.990       .  S
O143       Zr163   2.378       .  S
O144       Zr164   2.380       .  S
O144        H171   0.965       .  S
O145       Zr157   2.445       .  S
O145        C147   1.287       .  A
O146       Zr164   2.406       .  S
O146        C147   1.282       .  A
C147        C890   1.460       .  S
O148       Zr160   2.443       .  S
O148        C150   1.287       .  A
O149       Zr163   2.427       .  S
O149        C150   1.287       .  A
C150        C870   1.494       .  S
O151       Zr160   2.444       .  S
O151        C153   1.288       .  A
O152       Zr164   2.422       .  S
O152        C153   1.287       .  A
C153        C839   1.483       .  S
O154       Zr157   2.441       .  S
O154        C156   1.287       .  A
O155       Zr163   2.419       .  S
O155        C156   1.285       .  A
C156        C910   1.464       .  S
Zr157       O158   2.436       .  S
Zr157       O159   2.435       .  S
Zr157       O165   2.371       .  S
Zr157       O166   2.372       .  S
Zr157       O169   2.373       .  S
Zr157       O167   2.372       .  S
O158        H178   0.990       .  S
O158        H183   0.990       .  S
O159        H179   0.990       .  S
Zr160       O161   2.431       .  S
Zr160       O162   2.434       .  S
Zr160       O166   2.366       .  S
Zr160       O165   2.369       .  S
Zr160       O170   2.376       .  S
Zr160       O168   2.372       .  S
O161        H177   0.990       .  S
O162        H176   0.990       .  S
O162        H186   0.990       .  S
Zr163       O166   2.372       .  S
Zr163       O168   2.385       .  S
Zr163       O169   2.385       .  S
Zr164       O165   2.376       .  S
Zr164       O167   2.380       .  S
Zr164       O170   2.378       .  S
O165        H173   0.966       .  S
O168        H172   0.966       .  S
O169        H174   0.966       .  S
O187       Zr199   2.447       .  S
O187        C189   1.289       .  A
O188       Zr225   2.425   1_556  S
O188        C189   1.285       .  A
C189        C759   1.472       .  S
O190       Zr202   2.452       .  S
O190        C192   1.290       .  A
O191       Zr226   2.419       .  S
O191        C192   1.285       .  A
C192        C859   1.477       .  S
O193       Zr202   2.453       .  S
O193        C195   1.291       .  A
O194       Zr225   2.414   1_556  S
O194        C195   1.283       .  A
C195        C990   1.495       .  S
O196       Zr199   2.439       .  S
O196        C198   1.289       .  A
O197       Zr226   2.431       .  S
O197        C198   1.287       .  A
C198        C779   1.483       .  S
Zr199       O200   2.433       .  S
Zr199       O201   2.436   1_556  S
Zr199       O205   2.367       .  S
Zr199       O206   2.364       .  S
Zr199       O229   2.368   1_556  S
Zr199       O231   2.365   1_556  S
O200        H243   0.990       .  S
O201        H242   0.990       .  S
O201        H246   0.990       .  S
Zr202       O203   2.436       .  S
Zr202       O204   2.434       .  S
Zr202       O206   2.374       .  S
Zr202       O205   2.371       .  S
Zr202       O230   2.372       .  S
Zr202       O232   2.375       .  S
O203        H244   0.990       .  S
O203        H247   0.990       .  S
O204        H237   0.990       .  S
O205       Zr225   2.378   1_556  S
O206       Zr226   2.388       .  S
O206        H233   0.966       .  S
O207       Zr219   2.426       .  S
O207        C209   1.284       .  A
O208       Zr226   2.427   1_554  S
O208        C209   1.286       .  A
C209        C850   1.468       .  S
O210       Zr222   2.459       .  S
O210        C212   1.292       .  A
O211       Zr225   2.418       .  S
O211        C212   1.285       .  A
C212        C719   1.489       .  S
O213       Zr222   2.459       .  S
O213        C215   1.290       .  A
O214       Zr226   2.426   1_554  S
O214        C215   1.287       .  A
C215        C739   1.476       .  S
O216       Zr219   2.430       .  S
O216        C218   1.286       .  A
O217       Zr225   2.423       .  S
O217        C218   1.284       .  A
C218        C959   1.482       .  S
Zr219       O220   2.434       .  S
Zr219       O221   2.434       .  S
Zr219       O227   2.369       .  S
Zr219       O228   2.367       .  S
Zr219       O231   2.368       .  S
Zr219       O229   2.368       .  S
O220        H240   0.990       .  S
O220        H245   0.990       .  S
O221        H241   0.990       .  S
Zr222       O223   2.435       .  S
Zr222       O224   2.434   1_554  S
Zr222       O228   2.381       .  S
Zr222       O227   2.383       .  S
Zr222       O232   2.377   1_554  S
Zr222       O230   2.378   1_554  S
O223        H239   0.990       .  S
O224        H238   0.990       .  S
O224        H248   0.990       .  S
Zr225       O228   2.382       .  S
Zr225       O230   2.387   1_554  S
Zr225       O231   2.381       .  S
Zr226       O227   2.388   1_556  S
Zr226       O229   2.379   1_556  S
Zr226       O232   2.387       .  S
O227        H235   0.966       .  S
O230        H234   0.966       .  S
O231        H236   0.966       .  S
O249       Zr261   2.439   1_554  S
O249        C251   1.287       .  A
O250       Zr287   2.443       .  S
O250        C251   1.289   1_556  A
C251        C699   1.478       .  S
O252       Zr264   2.447       .  S
O252        C254   1.290       .  A
O253       Zr288   2.412       .  S
O253        C254   1.282       .  A
C254       C1019   1.492       .  S
O255       Zr264   2.442       .  S
O255        C257   1.286       .  A
O256       Zr287   2.432       .  S
O256        C257   1.289       .  A
C257       C1230   1.498       .  S
O258       Zr261   2.443       .  S
O258        C260   1.289       .  A
O259       Zr288   2.421       .  S
O259        C260   1.285       .  A
C260        C770   1.473       .  S
Zr261       O262   2.433       .  S
Zr261       O263   2.435   1_556  S
Zr261       O267   2.370       .  S
Zr261       O268   2.363       .  S
Zr261       O291   2.368   1_556  S
Zr261       O293   2.366   1_556  S
O262        H305   0.990       .  S
O263        H304   0.990       .  S
O263        H308   0.990       .  S
Zr264       O265   2.436       .  S
Zr264       O266   2.436       .  S
Zr264       O268   2.369       .  S
Zr264       O267   2.374       .  S
Zr264       O292   2.370       .  S
Zr264       O294   2.371       .  S
O265        H306   0.990       .  S
O265        H309   0.990       .  S
O266        H299   0.990       .  S
O267       Zr287   2.378       .  S
O268       Zr288   2.382       .  S
O268        H295   0.965       .  S
O269       Zr281   2.444       .  S
O269        C271   1.289       .  A
O270       Zr288   2.420   1_554  S
O270        C271   1.285       .  A
C271        C999   1.481       .  S
O272       Zr284   2.447       .  S
O272        C274   1.289       .  A
O273       Zr287   2.431   1_554  S
O273        C274   1.288       .  A
C274        C670   1.473       .  S
O275       Zr284   2.465       .  S
O275        C277   1.292       .  A
O276       Zr288   2.416   1_554  S
O276        C277   1.286       .  A
C277        C679   1.488       .  S
O278       Zr281   2.439       .  S
O278        C280   1.289       .  A
O279       Zr287   2.419   1_554  S
O279        C280   1.283       .  A
C280       C1210   1.490       .  S
Zr281       O282   2.435       .  S
Zr281       O283   2.434       .  S
Zr281       O289   2.366       .  S
Zr281       O290   2.367       .  S
Zr281       O293   2.370       .  S
Zr281       O291   2.372       .  S
O282        H302   0.990       .  S
O282        H307   0.990       .  S
O283        H303   0.990       .  S
Zr284       O285   2.434       .  S
Zr284       O286   2.435   1_554  S
Zr284       O290   2.380       .  S
Zr284       O289   2.378       .  S
Zr284       O294   2.371   1_554  S
Zr284       O292   2.383   1_554  S
O285        H301   0.990       .  S
O286        H300   0.990       .  S
O286        H310   0.990       .  S
Zr287       O290   2.387   1_556  S
Zr287       O292   2.390       .  S
Zr287       O293   2.387   1_556  S
Zr288       O289   2.384   1_556  S
Zr288       O291   2.377   1_556  S
Zr288       O294   2.382       .  S
O289        H297   0.966       .  S
O292        H296   0.966       .  S
O293        H298   0.965       .  S
O311       Zr323   2.432       .  S
O311        C313   1.287       .  A
O312       Zr349   2.437       .  S
O312        C313   1.288       .  A
C313        C639   1.491       .  S
O314       Zr326   2.438       .  S
O314        C316   1.288       .  A
O315       Zr350   2.431   1_556  S
O315        C316   1.286       .  A
C316       C1110   1.492       .  S
O317       Zr326   2.431       .  S
O317        C319   1.287       .  A
O318       Zr349   2.413       .  S
O318        C319   1.284       .  A
C319       C1139   1.473       .  S
O320       Zr323   2.430   1_554  S
O320        C322   1.286       .  A
O321       Zr350   2.430       .  S
O321        C322   1.287       .  A
C322        C619   1.472       .  S
Zr323       O324   2.434       .  S
Zr323       O325   2.435   1_556  S
Zr323       O329   2.364       .  S
Zr323       O330   2.364       .  S
Zr323       O353   2.363   1_556  S
Zr323       O355   2.364   1_556  S
O324        H367   0.990       .  S
O325        H366   0.990       .  S
O325        H370   0.990       .  S
Zr326       O327   2.437       .  S
Zr326       O328   2.434       .  S
Zr326       O330   2.370       .  S
Zr326       O329   2.370       .  S
Zr326       O354   2.371       .  S
Zr326       O356   2.372       .  S
O327        H368   0.990       .  S
O327        H371   0.990       .  S
O328        H361   0.990       .  S
O329       Zr349   2.377       .  S
O330       Zr350   2.381   1_556  S
O330        H357   0.966       .  S
O331       Zr343   2.423       .  S
O331        C333   1.286       .  A
O332       Zr350   2.427       .  S
O332        C333   1.286       .  A
C333       C1090   1.478       .  S
O334       Zr346   2.465       .  S
O334        C336   1.293       .  A
O335       Zr349   2.418       .  S
O335        C336   1.286   1_556  A
C336        C599   1.487       .  S
O337       Zr346   2.466       .  S
O337        C339   1.292       .  A
O338       Zr350   2.420       .  S
O338        C339   1.286       .  A
C339        C730   1.474       .  S
O340       Zr343   2.435       .  S
O340        C342   1.288       .  A
O341       Zr349   2.425   1_554  S
O341        C342   1.285       .  A
C342       C1119   1.484       .  S
Zr343       O344   2.434       .  S
Zr343       O345   2.434       .  S
Zr343       O351   2.370       .  S
Zr343       O352   2.364       .  S
Zr343       O355   2.366       .  S
Zr343       O353   2.369       .  S
O344        H364   0.990       .  S
O344        H369   0.990       .  S
O345        H365   0.990       .  S
Zr346       O347   2.434       .  S
Zr346       O348   2.434   1_554  S
Zr346       O352   2.379       .  S
Zr346       O351   2.378       .  S
Zr346       O356   2.380   1_554  S
Zr346       O354   2.377   1_554  S
O347        H363   0.990       .  S
O348        H362   0.990       .  S
O348        H372   0.990       .  S
Zr349       O352   2.382   1_556  S
Zr349       O354   2.390       .  S
Zr349       O355   2.378   1_556  S
Zr350       O351   2.391       .  S
Zr350       O353   2.378       .  S
Zr350       O356   2.386   1_554  S
O351        H359   0.966       .  S
O354        H358   0.966       .  S
O355        H360   0.965       .  S
O373       Zr385   2.440       .  S
O373        C375   1.287       .  A
O374       Zr411   2.422       .  S
O374        C375   1.286       .  A
C375       C1190   1.476       .  S
O376       Zr388   2.441   1_554  S
O376        C378   1.288       .  A
O377       Zr412   2.429       .  S
O377        C378   1.286   1_556  A
C378        C590   1.475       .  S
O379       Zr388   2.444       .  S
O379        C381   1.288       .  A
O380       Zr411   2.432       .  S
O380        C381   1.287       .  A
C381        C650   1.474       .  S
O382       Zr385   2.436       .  S
O382        C384   1.286       .  A
O383       Zr412   2.425       .  S
O383        C384   1.287       .  A
C384        C899   1.482       .  S
Zr385       O386   2.434       .  S
Zr385       O387   2.436       .  S
Zr385       O391   2.372       .  S
Zr385       O392   2.376       .  S
Zr385       O415   2.374       .  S
Zr385       O417   2.368       .  S
O386        H429   0.990       .  S
O387        H428   0.990       .  S
O387        H432   0.990       .  S
Zr388       O389   2.434       .  S
Zr388       O390   2.434   1_556  S
Zr388       O392   2.365       .  S
Zr388       O391   2.365       .  S
Zr388       O416   2.368   1_556  S
Zr388       O418   2.367   1_556  S
O389        H430   0.990       .  S
O389        H433   0.990       .  S
O390        H423   0.990       .  S
O391       Zr411   2.378       .  S
O392       Zr412   2.384       .  S
O392        H419   0.966       .  S
O393       Zr405   2.484       .  S
O393        C395   1.296       .  A
O394       Zr412   2.418   1_554  S
O394        C395   1.287       .  A
C395        C750   1.500       .  S
O396       Zr408   2.435       .  S
O396        C398   1.287       .  A
O397       Zr411   2.436   1_554  S
O397        C398   1.288       .  A
C398       C1159   1.488       .  S
O399       Zr408   2.430       .  S
O399        C401   1.287       .  A
O400       Zr412   2.425   1_554  S
O400        C401   1.285       .  A
C401        C879   1.484       .  S
O402       Zr405   2.466       .  S
O402        C404   1.293       .  A
O403       Zr411   2.412   1_554  S
O403        C404   1.285       .  A
C404        C659   1.480       .  S
Zr405       O406   2.435       .  S
Zr405       O407   2.434   1_554  S
Zr405       O413   2.376       .  S
Zr405       O414   2.384       .  S
Zr405       O417   2.384   1_554  S
Zr405       O415   2.380   1_554  S
O406        H426   0.990       .  S
O406        H431   0.990       .  S
O407        H427   0.990       .  S
Zr408       O409   2.433       .  S
Zr408       O410   2.436       .  S
Zr408       O414   2.369       .  S
Zr408       O413   2.373       .  S
Zr408       O418   2.367       .  S
Zr408       O416   2.367       .  S
O409        H425   0.990       .  S
O410        H424   0.990       .  S
O410        H434   0.990       .  S
Zr411       O414   2.384   1_556  S
Zr411       O416   2.376   1_556  S
Zr411       O417   2.392       .  S
Zr412       O413   2.386   1_556  S
Zr412       O415   2.386       .  S
Zr412       O418   2.378   1_556  S
O413        H421   0.966       .  S
O416        H420   0.966       .  S
O417        H422   0.966       .  S
O435       Zr447   2.441       .  S
O435        C437   1.288       .  A
O436       Zr473   2.435       .  S
O436        C437   1.287       .  A
C437        C630   1.479   1_554  S
O438       Zr450   2.441       .  S
O438        C440   1.287       .  A
O439       Zr474   2.421   1_556  S
O439        C440   1.285       .  A
C440        C950   1.477       .  S
O441       Zr450   2.432       .  S
O441        C443   1.287       .  A
O442       Zr473   2.427   1_556  S
O442        C443   1.286       .  A
C443       C1059   1.483       .  S
O444       Zr447   2.437       .  S
O444        C446   1.287       .  A
O445       Zr474   2.437       .  S
O445        C446   1.288       .  A
C446        C579   1.478       .  S
Zr447       O448   2.432   1_554  S
Zr447       O449   2.435       .  S
Zr447       O453   2.367   1_554  S
Zr447       O454   2.367   1_554  S
Zr447       O477   2.369       .  S
Zr447       O479   2.360       .  S
O448        H491   0.990       .  S
O449        H490   0.990       .  S
O449        H494   0.990       .  S
Zr450       O451   2.437       .  S
Zr450       O452   2.435       .  S
Zr450       O454   2.371       .  S
Zr450       O453   2.375       .  S
Zr450       O478   2.371       .  S
Zr450       O480   2.366       .  S
O451        H492   0.990       .  S
O451        H495   0.990       .  S
O452        H485   0.990       .  S
O453       Zr473   2.380   1_556  S
O454       Zr474   2.386   1_556  S
O454        H481   0.966       .  S
O455       Zr467   2.434       .  S
O455        C457   1.286       .  A
O456       Zr474   2.424       .  S
O456        C457   1.286       .  A
C457        C930   1.473       .  S
O458       Zr470   2.466   1_554  S
O458        C460   1.292       .  A
O459       Zr473   2.417       .  S
O459        C460   1.286       .  A
C460        C690   1.484       .  S
O461       Zr470   2.460       .  S
O461        C463   1.292       .  A
O462       Zr474   2.429   1_556  S
O462        C463   1.288       .  A
C463        C559   1.482       .  S
O464       Zr467   2.430       .  S
O464        C466   1.284       .  A
O465       Zr473   2.424       .  S
O465        C466   1.287       .  A
C466       C1050   1.479       .  S
Zr467       O468   2.433       .  S
Zr467       O469   2.433       .  S
Zr467       O475   2.365       .  S
Zr467       O476   2.367       .  S
Zr467       O479   2.373       .  S
Zr467       O477   2.369       .  S
O468        H488   0.990       .  S
O468        H493   0.990       .  S
O469        H489   0.990       .  S
Zr470       O471   2.434   1_556  S
Zr470       O472   2.435       .  S
Zr470       O476   2.380   1_556  S
Zr470       O475   2.385   1_556  S
Zr470       O480   2.377       .  S
Zr470       O478   2.377       .  S
O471        H487   0.990       .  S
O472        H486   0.990       .  S
O472        H496   0.990       .  S
Zr473       O476   2.385       .  S
Zr473       O478   2.391   1_554  S
Zr473       O479   2.381       .  S
Zr474       O475   2.390       .  S
Zr474       O477   2.378       .  S
Zr474       O480   2.386   1_554  S
O475        H483   0.966       .  S
O478        H482   0.966       .  S
O479        H484   0.966       .  S
O497       Zr509   2.451       .  S
O497        C499   1.290       .  A
O498       Zr535   2.425       .  S
O498        C499   1.286       .  A
C499       C1259   1.483       .  S
O500       Zr512   2.437   1_554  S
O500        C502   1.287   1_554  A
O501       Zr536   2.432       .  S
O501        C502   1.287       .  A
C502        C790   1.478   1_556  S
O503       Zr512   2.439       .  S
O503        C505   1.287       .  A
O504       Zr535   2.432       .  S
O504        C505   1.287       .  A
C505        C710   1.478       .  S
O506       Zr509   2.434       .  S
O506        C508   1.287       .  A
O507       Zr536   2.428       .  S
O507        C508   1.287       .  A
C508        C819   1.475       .  S
Zr509       O510   2.434       .  S
Zr509       O511   2.436       .  S
Zr509       O515   2.370       .  S
Zr509       O516   2.377       .  S
Zr509       O539   2.374       .  S
Zr509       O541   2.362       .  S
O510        H553   0.990       .  S
O511        H552   0.990       .  S
O511        H556   0.990       .  S
Zr512       O513   2.435       .  S
Zr512       O514   2.433   1_556  S
Zr512       O516   2.361       .  S
Zr512       O515   2.368       .  S
Zr512       O540   2.356   1_556  S
Zr512       O542   2.369   1_556  S
O513        H554   0.990       .  S
O513        H557   0.990       .  S
O514        H547   0.990       .  S
O515       Zr535   2.377       .  S
O516       Zr536   2.383       .  S
O516        H543   0.966       .  S
O517       Zr529   2.484       .  S
O517        C519   1.296       .  A
O518       Zr536   2.410       .  S
O518        C519   1.285       .  A
C519        C570   1.491       .  S
O520       Zr532   2.443       .  S
O520        C522   1.287       .  A
O521       Zr535   2.435   1_554  S
O521        C522   1.288       .  A
C522       C1250   1.477       .  S
O523       Zr532   2.440       .  S
O523        C525   1.286       .  A
O524       Zr536   2.435   1_554  S
O524        C525   1.287       .  A
C525        C799   1.478       .  S
O526       Zr529   2.468       .  S
O526        C528   1.293       .  A
O527       Zr535   2.412       .  S
O527        C528   1.286       .  A
C528        C610   1.479       .  S
Zr529       O530   2.435   1_556  S
Zr529       O531   2.435       .  S
Zr529       O537   2.383   1_556  S
Zr529       O538   2.391   1_556  S
Zr529       O541   2.385       .  S
Zr529       O539   2.381       .  S
O530        H550   0.990       .  S
O530        H555   0.990       .  S
O531        H551   0.990       .  S
Zr532       O533   2.436       .  S
Zr532       O534   2.437       .  S
Zr532       O538   2.370       .  S
Zr532       O537   2.370       .  S
Zr532       O542   2.375       .  S
Zr532       O540   2.377       .  S
O533        H549   0.990       .  S
O534        H548   0.990       .  S
O534        H558   0.990       .  S
Zr535       O538   2.394   1_556  S
Zr535       O540   2.378   1_556  S
Zr535       O541   2.395       .  S
Zr536       O537   2.394   1_556  S
Zr536       O539   2.391       .  S
Zr536       O542   2.380   1_556  S
O537        H545   0.966       .  S
O540        H544   0.963       .  S
O541        H546   0.966       .  S
C559        C560   1.411   1_556  A
C559        C564   1.405       .  A
C560        C561   1.404       .  A
C560       Br576   1.918       .  S
C561        C562   1.404   1_554  A
C561        H565   1.083       .  S
C562        C566   1.484       .  S
C562        C563   1.408       .  A
C563        C564   1.402       .  A
C563       Br575   1.919       .  S
C564        H567   1.084       .  S
C566        C568   1.405       .  A
C566        C572   1.405   1_556  A
C568        C569   1.408       .  A
C568        H573   1.083       .  S
C569        C570   1.415       .  A
C569       Br577   1.917       .  S
C570        C571   1.408   1_556  A
C571        C572   1.397       .  A
C571        H574   1.084       .  S
C572       Br578   1.920       .  S
C579        C580   1.411   1_554  A
C579        C584   1.405       .  A
C580        C581   1.397       .  A
C580       Br596   1.920       .  S
C581        C582   1.402   1_556  A
C581        H585   1.084       .  S
C582        C586   1.483       .  S
C582        C583   1.410       .  A
C583        C584   1.404       .  A
C583       Br595   1.917       .  S
C584        H587   1.084       .  S
C586        C588   1.402       .  A
C586        C592   1.411   1_554  A
C588        C589   1.397       .  A
C588        H593   1.083       .  S
C589        C590   1.409       .  A
C589       Br597   1.920       .  S
C590        C591   1.404   1_554  A
C591        C592   1.404       .  A
C591        H594   1.084       .  S
C592       Br598   1.919       .  S
C599        C600   1.417       .  A
C599        C604   1.408   1_554  A
C600        C601   1.397       .  A
C600       Br616   1.921       .  S
C601        C602   1.399   1_554  A
C601        H605   1.084       .  S
C602        C606   1.479   1_565  S
C602        C603   1.406       .  A
C603        C604   1.405       .  A
C603       Br615   1.917       .  S
C604        H607   1.083       .  S
C606        C608   1.400       .  A
C606        C612   1.408   1_556  A
C608        C609   1.397       .  A
C608        H613   1.084       .  S
C609        C610   1.413       .  A
C609       Br617   1.920       .  S
C610        C611   1.404   1_556  A
C611        C612   1.403       .  A
C611        H614   1.083       .  S
C612       Br618   1.916       .  S
C619        C620   1.408   1_554  A
C619        C624   1.402       .  A
C620        C621   1.402       .  A
C620       Br636   1.918       .  S
C621        C622   1.405   1_556  A
C621        H625   1.083       .  S
C622        C626   1.483       .  S
C622        C623   1.411       .  A
C623        C624   1.397       .  A
C623       Br635   1.920       .  S
C624        H627   1.084       .  S
C626        C628   1.401   1_554  A
C626        C632   1.408       .  A
C628        C629   1.397       .  A
C628        H633   1.084       .  S
C629        C630   1.409       .  A
C629       Br637   1.919       .  S
C630        C631   1.406   1_556  A
C631        C632   1.406       .  A
C631        H634   1.083       .  S
C632       Br638   1.916       .  S
C639        C640   1.417       .  A
C639        C644   1.408   1_556  A
C640        C641   1.408       .  A
C640       Br656   1.921       .  S
C641        C642   1.405       .  A
C641        H645   1.083       .  S
C642        C646   1.483       .  S
C642        C643   1.405   1_556  A
C643        C644   1.394       .  A
C643       Br655   1.921       .  S
C644        H647   1.083       .  S
C646        C648   1.404   1_556  A
C646        C652   1.409       .  A
C648        C649   1.401       .  A
C648        H653   1.083       .  S
C649        C650   1.408   1_554  A
C649       Br657   1.919       .  S
C650        C651   1.403       .  A
C651        C652   1.401       .  A
C651        H654   1.084       .  S
C652       Br658   1.918       .  S
C659        C660   1.413   1_554  A
C659        C664   1.405       .  A
C660        C661   1.396       .  A
C660       Br676   1.921       .  S
C661        C662   1.401   1_556  A
C661        H665   1.084       .  S
C662        C666   1.483   1_565  S
C662        C663   1.410       .  A
C663        C664   1.404       .  A
C663       Br675   1.917       .  S
C664        H667   1.083       .  S
C666        C668   1.404       .  A
C666        C672   1.411   1_554  A
C668        C669   1.400       .  A
C668        H673   1.083       .  S
C669        C670   1.408       .  A
C669       Br677   1.918       .  S
C670        C671   1.402   1_554  A
C671        C672   1.400       .  A
C671        H674   1.084       .  S
C672       Br678   1.919       .  S
C679        C680   1.415       .  A
C679        C684   1.408   1_554  A
C680        C681   1.405       .  A
C680       Br696   1.918       .  S
C681        C682   1.402       .  A
C681        H685   1.083       .  S
C682        C686   1.480   1_655  S
C682        C683   1.406   1_554  A
C683        C684   1.397       .  A
C683       Br695   1.921       .  S
C684        H687   1.083       .  S
C686        C688   1.404   1_554  A
C686        C692   1.405       .  A
C688        C689   1.406       .  A
C688        H693   1.083       .  S
C689        C690   1.414   1_556  A
C689       Br697   1.918       .  S
C690        C691   1.406       .  A
C691        C692   1.397       .  A
C691        H694   1.084       .  S
C692       Br698   1.920       .  S
C699        C700   1.410       .  A
C699        C704   1.404   1_554  A
C700        C701   1.398       .  A
C700       Br716   1.919       .  S
C701        C702   1.403   1_554  A
C701        H705   1.084       .  S
C702        C706   1.486       .  S
C702        C703   1.412       .  A
C703        C704   1.404       .  A
C703       Br715   1.918       .  S
C704        H707   1.084       .  S
C706        C708   1.403       .  A
C706        C712   1.411   1_556  A
C708        C709   1.399       .  A
C708        H713   1.084       .  S
C709        C710   1.411       .  A
C709       Br717   1.920       .  S
C710        C711   1.404   1_556  A
C711        C712   1.403       .  A
C711        H714   1.084       .  S
C712       Br718   1.918       .  S
C719        C720   1.417       .  A
C719        C724   1.408       .  A
C720        C721   1.399       .  A
C720       Br736   1.922       .  S
C721        C722   1.401       .  A
C721        H725   1.084       .  S
C722        C726   1.484   1_655  S
C722        C723   1.408       .  A
C723        C724   1.403       .  A
C723       Br735   1.917   1_554  S
C724        H727   1.083   1_554  S
C726        C728   1.404   1_554  A
C726        C732   1.410       .  A
C728        C729   1.400       .  A
C728        H733   1.084       .  S
C729        C730   1.407   1_556  A
C729       Br737   1.917       .  S
C730        C731   1.403       .  A
C731        C732   1.402       .  A
C731        H734   1.084       .  S
C732       Br738   1.919       .  S
C739        C740   1.406       .  A
C739        C744   1.401   1_554  A
C740        C741   1.404       .  A
C740       Br756   1.919       .  S
C741        C742   1.409       .  A
C741        H745   1.083       .  S
C742        C746   1.496       .  S
C742        C743   1.414   1_554  A
C743        C744   1.403       .  A
C743       Br755   1.918       .  S
C744        H747   1.083       .  S
C746        C748   1.408   1_554  A
C746        C752   1.410       .  A
C748        C749   1.410       .  A
C748        H753   1.083       .  S
C749        C750   1.416   1_556  A
C749       Br757   1.918       .  S
C750        C751   1.409       .  A
C751        C752   1.400       .  A
C751        H754   1.084       .  S
C752       Br758   1.922       .  S
C759        C760   1.406   1_556  A
C759        C764   1.403       .  A
C760        C761   1.397       .  A
C760       Br776   1.919       .  S
C761        C762   1.404   1_554  A
C761        H765   1.083       .  S
C762        C766   1.484       .  S
C762        C763   1.412       .  A
C763        C764   1.403       .  A
C763       Br775   1.920       .  S
C764        H767   1.083       .  S
C766        C768   1.404       .  A
C766        C772   1.412   1_556  A
C768        C769   1.397       .  A
C768        H773   1.083       .  S
C769        C770   1.408       .  A
C769       Br777   1.921       .  S
C770        C771   1.403   1_556  A
C771        C772   1.401       .  A
C771        H774   1.084       .  S
C772       Br778   1.919       .  S
C779        C780   1.415   1_556  A
C779        C784   1.405       .  A
C780        C781   1.404       .  A
C780       Br796   1.917       .  S
C781        C782   1.403   1_554  A
C781        H785   1.083       .  S
C782        C786   1.478       .  S
C782        C783   1.406       .  A
C783        C784   1.395       .  A
C783       Br795   1.919       .  S
C784        H787   1.084       .  S
C786        C788   1.403       .  A
C786        C792   1.407   1_556  A
C788        C789   1.403       .  A
C788        H793   1.083       .  S
C789        C790   1.411   1_556  A
C789       Br797   1.918       .  S
C790        C791   1.404       .  A
C791        C792   1.397       .  A
C791        H794   1.084       .  S
C792       Br798   1.920       .  S
C799        C800   1.412       .  A
C799        C804   1.404       .  A
C800        C801   1.398       .  A
C800       Br816   1.920       .  S
C801        C802   1.401       .  A
C801        H805   1.084       .  S
C802        C806   1.483       .  S
C802        C803   1.411       .  A
C803        C804   1.403       .  A
C803       Br815   1.919       .  S
C804        H807   1.084       .  S
C806        C808   1.398       .  A
C806        C812   1.408       .  A
C808        C809   1.399       .  A
C808        H813   1.084       .  S
C809        C810   1.426       .  A
C809       Br817   1.927       .  S
C810        C811   1.409       .  A
C811        C812   1.401       .  A
C811        H814   1.083       .  S
C812       Br818   1.918       .  S
C819        C820   1.411       .  A
C819        C824   1.405       .  A
C820        C821   1.402       .  A
C820       Br836   1.920       .  S
C821        C822   1.403       .  A
C821        H825   1.083       .  S
C822        C826   1.473       .  S
C822        C823   1.404       .  A
C823        C824   1.394       .  A
C823       Br835   1.919       .  S
C824        H827   1.084       .  S
C826        C828   1.400       .  A
C826        C832   1.405       .  A
C828        C829   1.399       .  A
C828        H833   1.084       .  S
C829        C830   1.414       .  A
C829       Br837   1.916       .  S
C830        C831   1.406       .  A
C831        C832   1.398       .  A
C831        H834   1.083       .  S
C832       Br838   1.918       .  S
C839        C840   1.416       .  A
C839        C844   1.407       .  A
C840        C841   1.399       .  A
C840       Br856   1.920       .  S
C841        C842   1.401       .  A
C841        H845   1.084       .  S
C842        C846   1.477       .  S
C842        C843   1.406       .  A
C843        C844   1.398       .  A
C843       Br855   1.919       .  S
C844        H847   1.084       .  S
C846        C848   1.402       .  A
C846        C852   1.410       .  A
C848        C849   1.397       .  A
C848        H853   1.084       .  S
C849        C850   1.410       .  A
C849       Br857   1.922       .  S
C850        C851   1.401       .  A
C851        C852   1.398       .  A
C851        H854   1.084       .  S
C852       Br858   1.918       .  S
C859        C860   1.413       .  A
C859        C864   1.404       .  A
C860        C861   1.402       .  A
C860       Br876   1.918       .  S
C861        C862   1.402       .  A
C861        H865   1.083       .  S
C862        C866   1.476       .  S
C862        C863   1.406       .  A
C863        C864   1.395       .  A
C863       Br875   1.920       .  S
C864        H867   1.084       .  S
C866        C868   1.398       .  A
C866        C872   1.404       .  A
C868        C869   1.398       .  A
C868        H873   1.084       .  S
C869        C870   1.421       .  A
C869       Br877   1.921       .  S
C870        C871   1.411       .  A
C871        C872   1.400       .  A
C871        H874   1.081       .  S
C872       Br878   1.919       .  S
C879        C880   1.418       .  A
C879        C884   1.409       .  A
C880        C881   1.399       .  A
C880       Br896   1.920       .  S
C881        C882   1.399       .  A
C881        H885   1.084       .  S
C882        C886   1.469       .  S
C882        C883   1.402       .  A
C883        C884   1.394       .  A
C883       Br895   1.920       .  S
C884        H887   1.083       .  S
C886        C888   1.400       .  A
C886        C892   1.408       .  A
C888        C889   1.396       .  A
C888        H893   1.084       .  S
C889        C890   1.407       .  A
C889       Br897   1.918       .  S
C890        C891   1.400       .  A
C891        C892   1.397       .  A
C891        H894   1.084       .  S
C892       Br898   1.918       .  S
C899        C900   1.416       .  A
C899        C904   1.407       .  A
C900        C901   1.398       .  A
C900       Br916   1.922       .  S
C901        C902   1.400       .  A
C901        H905   1.084       .  S
C902        C906   1.475       .  S
C902        C903   1.406       .  A
C903        C904   1.397       .  A
C903       Br915   1.920       .  S
C904        H907   1.083       .  S
C906        C908   1.401       .  A
C906        C912   1.411       .  A
C908        C909   1.396       .  A
C908        H913   1.084       .  S
C909        C910   1.406       .  A
C909       Br917   1.917       .  S
C910        C911   1.401       .  A
C911        C912   1.399       .  A
C911        H914   1.084       .  S
C912       Br918   1.921       .  S
C919        C920   1.415       .  A
C919        C924   1.407       .  A
C920        C921   1.399       .  A
C920       Br936   1.919       .  S
C921        C922   1.399       .  A
C921        H925   1.084       .  S
C922        C926   1.475       .  S
C922        C923   1.405       .  A
C923        C924   1.399       .  A
C923       Br935   1.917       .  S
C924        H927   1.084       .  S
C926        C928   1.400       .  A
C926        C932   1.408       .  A
C928        C929   1.396       .  A
C928        H933   1.084       .  S
C929        C930   1.412       .  A
C929       Br937   1.921       .  S
C930        C931   1.404       .  A
C931        C932   1.400       .  A
C931        H934   1.084       .  S
C932       Br938   1.918       .  S
C939        C940   1.415       .  A
C939        C944   1.406       .  A
C940        C941   1.396       .  A
C940       Br956   1.918       .  S
C941        C942   1.399       .  A
C941        H945   1.084       .  S
C942        C946   1.476       .  S
C942        C943   1.408       .  A
C943        C944   1.399       .  A
C943       Br955   1.920       .  S
C944        H947   1.083       .  S
C946        C948   1.400       .  A
C946        C952   1.408       .  A
C948        C949   1.397       .  A
C948        H953   1.084       .  S
C949        C950   1.413       .  A
C949       Br957   1.917       .  S
C950        C951   1.405       .  A
C951        C952   1.397       .  A
C951        H954   1.084       .  S
C952       Br958   1.919       .  S
C959        C960   1.417       .  A
C959        C964   1.408       .  A
C960        C961   1.398       .  A
C960       Br976   1.921       .  S
C961        C962   1.399       .  A
C961        H965   1.084       .  S
C962        C966   1.470       .  S
C962        C963   1.403       .  A
C963        C964   1.394       .  A
C963       Br975   1.920       .  S
C964        H967   1.083       .  S
C966        C968   1.397       .  A
C966        C972   1.408       .  A
C968        C969   1.394       .  A
C968        H973   1.084       .  S
C969        C970   1.410       .  A
C969       Br977   1.914       .  S
C970        C971   1.403       .  A
C971        C972   1.400       .  A
C971        H974   1.083       .  S
C972       Br978   1.919       .  S
C979        C980   1.405       .  A
C979        C984   1.404       .  A
C980        C981   1.398       .  A
C980       Br996   1.918       .  S
C981        C982   1.405       .  A
C981        H985   1.084       .  S
C982        C986   1.482       .  S
C982        C983   1.411       .  A
C983        C984   1.400       .  A
C983       Br995   1.919       .  S
C984        H987   1.084       .  S
C986        C988   1.400       .  A
C986        C992   1.407       .  A
C988        C989   1.401       .  A
C988        H993   1.084       .  S
C989        C990   1.423       .  A
C989       Br997   1.924       .  S
C990        C991   1.409       .  A
C991        C992   1.398       .  A
C991        H994   1.083       .  S
C992       Br998   1.920       .  S
C999       C1000   1.414       .  A
C999       C1004   1.406       .  A
C1000      C1001   1.403       .  A
C1000     Br1016   1.922       .  S
C1001      C1002   1.403       .  A
C1001      H1005   1.083       .  S
C1002      C1006   1.478       .  S
C1002      C1003   1.405       .  A
C1003      C1004   1.397       .  A
C1003     Br1015   1.918       .  S
C1004      H1007   1.084       .  S
C1006      C1008   1.401       .  A
C1006      C1012   1.405       .  A
C1008      C1009   1.402       .  A
C1008      H1013   1.084       .  S
C1009      C1010   1.417       .  A
C1009     Br1017   1.922       .  S
C1010      C1011   1.405       .  A
C1011      C1012   1.397       .  A
C1011      H1014   1.083       .  S
C1012     Br1018   1.917       .  S
C1019      C1020   1.423       .  A
C1019      C1024   1.409       .  A
C1020      C1021   1.402       .  A
C1020     Br1036   1.925       .  S
C1021      C1022   1.401       .  A
C1021      H1025   1.084       .  S
C1022      C1026   1.478       .  S
C1022      C1023   1.404       .  A
C1023      C1024   1.394       .  A
C1023     Br1035   1.920       .  S
C1024      H1027   1.083       .  S
C1026      C1028   1.403       .  A
C1026      C1032   1.408       .  A
C1028      C1029   1.399       .  A
C1028      H1033   1.084       .  S
C1029      C1030   1.410       .  A
C1029     Br1037   1.918       .  S
C1030      C1031   1.405       .  A
C1031      C1032   1.398       .  A
C1031      H1034   1.084       .  S
C1032     Br1038   1.921       .  S
C1039      C1040   1.409       .  A
C1039      C1044   1.404       .  A
C1040      C1041   1.398       .  A
C1040     Br1056   1.919       .  S
C1041      C1042   1.402       .  A
C1041      H1045   1.084       .  S
C1042      C1046   1.471       .  S
C1042      C1043   1.406       .  A
C1043      C1044   1.395       .  A
C1043     Br1055   1.920       .  S
C1044      H1047   1.084       .  S
C1046      C1048   1.399       .  A
C1046      C1052   1.404       .  A
C1048      C1049   1.397       .  A
C1048      H1053   1.084       .  S
C1049      C1050   1.417       .  A
C1049     Br1057   1.922       .  S
C1050      C1051   1.406       .  A
C1051      C1052   1.396       .  A
C1051      H1054   1.083       .  S
C1052     Br1058   1.916       .  S
C1059      C1060   1.417       .  A
C1059      C1064   1.409       .  A
C1060      C1061   1.399       .  A
C1060     Br1076   1.921       .  S
C1061      C1062   1.400       .  A
C1061      H1065   1.084       .  S
C1062      C1066   1.472       .  S
C1062      C1063   1.403       .  A
C1063      C1064   1.395       .  A
C1063     Br1075   1.920       .  S
C1064      H1067   1.083       .  S
C1066      C1068   1.403       .  A
C1066      C1072   1.406       .  A
C1068      C1069   1.396       .  A
C1068      H1073   1.084       .  S
C1069      C1070   1.407       .  A
C1069     Br1077   1.920       .  S
C1070      C1071   1.403       .  A
C1071      C1072   1.396       .  A
C1071      H1074   1.084       .  S
C1072     Br1078   1.918       .  S
C1079      C1080   1.410       .  A
C1079      C1084   1.404       .  A
C1080      C1081   1.395       .  A
C1080     Br1096   1.919       .  S
C1081      C1082   1.400       .  A
C1081      H1085   1.084       .  S
C1082      C1086   1.467       .  S
C1082      C1083   1.405       .  A
C1083      C1084   1.396       .  A
C1083     Br1095   1.919       .  S
C1084      H1087   1.084       .  S
C1086      C1088   1.401       .  A
C1086      C1092   1.402       .  A
C1088      C1089   1.400       .  A
C1088      H1093   1.084       .  S
C1089      C1090   1.414       .  A
C1089     Br1097   1.921       .  S
C1090      C1091   1.408       .  A
C1091      C1092   1.393       .  A
C1091      H1094   1.084       .  S
C1092     Br1098   1.921       .  S
C1099      C1100   1.412       .  A
C1099      C1104   1.404       .  A
C1100      C1101   1.398       .  A
C1100     Br1116   1.920       .  S
C1101      C1102   1.401       .  A
C1101      H1105   1.084       .  S
C1102      C1106   1.474       .  S
C1102      C1103   1.406       .  A
C1103      C1104   1.397       .  A
C1103     Br1115   1.919       .  S
C1104      H1107   1.084       .  S
C1106      C1108   1.401       .  A
C1106      C1112   1.402       .  A
C1108      C1109   1.403       .  A
C1108      H1113   1.084       .  S
C1109      C1110   1.420       .  A
C1109     Br1117   1.921       .  S
C1110      C1111   1.410       .  A
C1111      C1112   1.393       .  A
C1111      H1114   1.083       .  S
C1112     Br1118   1.921       .  S
C1119      C1120   1.417       .  A
C1119      C1124   1.407       .  A
C1120      C1121   1.400       .  A
C1120     Br1136   1.920       .  S
C1121      C1122   1.401       .  A
C1121      H1125   1.084       .  S
C1122      C1126   1.476       .  S
C1122      C1123   1.405       .  A
C1123      C1124   1.396       .  A
C1123     Br1135   1.920       .  S
C1124      H1127   1.083       .  S
C1126      C1128   1.400       .  A
C1126      C1132   1.409       .  A
C1128      C1129   1.397       .  A
C1128      H1133   1.084       .  S
C1129      C1130   1.412       .  A
C1129     Br1137   1.917       .  S
C1130      C1131   1.404       .  A
C1131      C1132   1.399       .  A
C1131      H1134   1.084       .  S
C1132     Br1138   1.920       .  S
C1139      C1140   1.414       .  A
C1139      C1144   1.406       .  A
C1140      C1141   1.398       .  A
C1140     Br1156   1.921       .  S
C1141      C1142   1.399       .  A
C1141      H1145   1.084       .  S
C1142      C1146   1.465       .  S
C1142      C1143   1.403       .  A
C1143      C1144   1.392       .  A
C1143     Br1155   1.920       .  S
C1144      H1147   1.084       .  S
C1146      C1148   1.397       .  A
C1146      C1152   1.404       .  A
C1148      C1149   1.394       .  A
C1148      H1153   1.084       .  S
C1149      C1150   1.416       .  A
C1149     Br1157   1.923       .  S
C1150      C1151   1.406       .  A
C1151      C1152   1.395       .  A
C1151      H1154   1.083       .  S
C1152     Br1158   1.919       .  S
C1159      C1160   1.415       .  A
C1159      C1164   1.408       .  A
C1160      C1161   1.406       .  A
C1160     Br1176   1.921       .  S
C1161      C1162   1.404       .  A
C1161      H1165   1.083       .  S
C1162      C1166   1.481       .  S
C1162      C1163   1.405       .  A
C1163      C1164   1.396       .  A
C1163     Br1175   1.919       .  S
C1164      H1167   1.083       .  S
C1166      C1168   1.402       .  A
C1166      C1172   1.407       .  A
C1168      C1169   1.403       .  A
C1168      H1173   1.084       .  S
C1169      C1170   1.416       .  A
C1169     Br1177   1.923       .  S
C1170      C1171   1.406       .  A
C1171      C1172   1.399       .  A
C1171      H1174   1.084       .  S
C1172     Br1178   1.918       .  S
C1179      C1180   1.412       .  A
C1179      C1184   1.408       .  A
C1180      C1181   1.402       .  A
C1180     Br1196   1.920       .  S
C1181      C1182   1.403       .  A
C1181      H1185   1.084       .  S
C1182      C1186   1.480       .  S
C1182      C1183   1.406       .  A
C1183      C1184   1.398       .  A
C1183     Br1195   1.919       .  S
C1184      H1187   1.084       .  S
C1186      C1188   1.403       .  A
C1186      C1192   1.408       .  A
C1188      C1189   1.401       .  A
C1188      H1193   1.083       .  S
C1189      C1190   1.411       .  A
C1189     Br1197   1.920       .  S
C1190      C1191   1.404       .  A
C1191      C1192   1.398       .  A
C1191      H1194   1.084       .  S
C1192     Br1198   1.918       .  S
C1199      C1200   1.410       .  A
C1199      C1204   1.404       .  A
C1200      C1201   1.397       .  A
C1200     Br1216   1.920       .  S
C1201      C1202   1.402       .  A
C1201      H1205   1.084       .  S
C1202      C1206   1.469       .  S
C1202      C1203   1.404       .  A
C1203      C1204   1.394       .  A
C1203     Br1215   1.920       .  S
C1204      H1207   1.084       .  S
C1206      C1208   1.400       .  A
C1206      C1212   1.400       .  A
C1208      C1209   1.401       .  A
C1208      H1213   1.084       .  S
C1209      C1210   1.422       .  A
C1209     Br1217   1.923       .  S
C1210      C1211   1.411       .  A
C1211      C1212   1.391       .  A
C1211      H1214   1.083       .  S
C1212     Br1218   1.920       .  S
C1219      C1220   1.407       .  A
C1219      C1224   1.401       .  A
C1220      C1221   1.400       .  A
C1220     Br1236   1.920       .  S
C1221      C1222   1.403       .  A
C1221      H1225   1.083       .  S
C1222      C1226   1.477       .  S
C1222      C1223   1.409       .  A
C1223      C1224   1.398       .  A
C1223     Br1235   1.918       .  S
C1224      H1227   1.084       .  S
C1226      C1228   1.398       .  A
C1226      C1232   1.404       .  A
C1228      C1229   1.399       .  A
C1228      H1233   1.084       .  S
C1229      C1230   1.424       .  A
C1229     Br1237   1.923       .  S
C1230      C1231   1.412       .  A
C1231      C1232   1.400       .  A
C1231      H1234   1.083       .  S
C1232     Br1238   1.918       .  S
C1239      C1240   1.417       .  A
C1239      C1244   1.408       .  A
C1240      C1241   1.400       .  A
C1240     Br1256   1.919       .  S
C1241      C1242   1.400       .  A
C1241      H1245   1.084       .  S
C1242      C1246   1.479       .  S
C1242      C1243   1.406       .  A
C1243      C1244   1.400       .  A
C1243     Br1255   1.916       .  S
C1244      H1247   1.084       .  S
C1246      C1248   1.400       .  A
C1246      C1252   1.409       .  A
C1248      C1249   1.398       .  A
C1248      H1253   1.084       .  S
C1249      C1250   1.414       .  A
C1249     Br1257   1.921       .  S
C1250      C1251   1.403       .  A
C1251      C1252   1.402       .  A
C1251      H1254   1.083       .  S
C1252     Br1258   1.917       .  S
C1259      C1260   1.412       .  A
C1259      C1264   1.407       .  A
C1260      C1261   1.400       .  A
C1260     Br1276   1.919       .  S
C1261      C1262   1.401       .  A
C1261      H1265   1.084       .  S
C1262      C1266   1.479       .  S
C1262      C1263   1.407       .  A
C1263      C1264   1.402       .  A
C1263     Br1275   1.919       .  S
C1264      H1267   1.084       .  S
C1266      C1268   1.403       .  A
C1266      C1272   1.407       .  A
C1268      C1269   1.400       .  A
C1268      H1273   1.083       .  S
C1269      C1270   1.409       .  A
C1269     Br1277   1.920       .  S
C1270      C1271   1.405       .  A
C1271      C1272   1.400       .  A
C1271      H1274   1.084       .  S
C1272     Br1278   1.918       .  S
