geometry optimzed in LAMMPS
_audit_creation_date              2020-11-30 
_audit_creation_method            'lammps2cif' 
_symmetry_space_group_name_H-M    'P1' 
_symmetry_Int_Tables_number       1 
_symmetry_cell_setting            triclinic 
loop_ 
_symmetry_equiv_pos_as_xyz 
  x,y,z 
_cell_length_a                    53.4141587 
_cell_length_b                    54.145464203954 
_cell_length_c                    25.208476088393034 
_cell_angle_alpha                 89.76512583364611 
_cell_angle_beta                  90.21748544784964 
_cell_angle_gamma                 91.06646768636027 
loop_ 
_atom_site_label 
_atom_site_type_symbol 
_atom_site_fract_x 
_atom_site_fract_y 
_atom_site_fract_z 
_atom_site_charge 
C1          C  0.51157857  0.27219838  0.98550390     0.79900
N2          N  0.52224541  0.27245855  0.93664916    -0.78400
C3          C  0.54738318  0.27037671  0.93126007     0.82400
N4          N  0.56184153  0.26846612  0.97538013    -0.78300
C5          C  0.55156400  0.26840091  0.02454387     0.82500
N6          N  0.52631959  0.27023224  0.02939403    -0.80000
O7          O  0.76778818  0.35056205  0.54026554    -0.85600
O8          O  0.72409270  0.35658675  0.59475228    -0.82700
C9          C  0.71970309  0.37907219  0.58521843     0.97800
O10         O  0.71230950  0.38553183  0.53966248    -0.82700
O11         O  0.70442881  0.38387360  0.43064984    -0.85400
C12         C  0.72512943  0.38997712  0.40969835     1.02400
O13         O  0.74380787  0.37629332  0.41517007    -0.78100
O14         O  0.77464925  0.34079681  0.45719449    -0.78300
C15         C  0.78257146  0.34866831  0.50172220     1.02300
O16         O  0.75254189  0.30181391  0.51037495    -0.85600
O17         O  0.70646344  0.30957544  0.55564146    -0.82700
C18         C  0.68565089  0.31917099  0.56520515     0.97900
O19         O  0.68171429  0.34129538  0.55144728    -0.82700
O20         O  0.67885149  0.33744170  0.44363861    -0.85300
C21         C  0.68582081  0.33322258  0.39686488     1.02300
O22         O  0.70803181  0.33854941  0.38250959    -0.78100
O23         O  0.73692967  0.30367182  0.43025759    -0.78300
C24         C  0.74695323  0.29146429  0.46698036     1.02300
Cr25       Cr  0.73674467  0.33062309  0.54575032     1.93700
Cr26       Cr  0.69648100  0.36087748  0.49109359     1.93200
Cr27       Cr  0.73974769  0.34016404  0.42597562     1.39100
O28         O  0.72440375  0.34394171  0.48739700    -1.23400
C29         C  0.77085315  0.56873213  0.98663793     0.79900
N30         N  0.76584948  0.55536021  0.94203000    -0.78400
C31         C  0.75658110  0.53184687  0.94543310     0.82400
N32         N  0.75231836  0.52177345  0.99402364    -0.78300
C33         C  0.75737559  0.53467156  0.03898361     0.82500
N34         N  0.76671416  0.55816258  0.03506508    -0.80000
C35         C  0.80013193  0.06947585  0.47845216     0.79900
N36         N  0.80506037  0.05774752  0.52507475    -0.78400
C37         C  0.81417116  0.03450728  0.52542794     0.82400
N38         N  0.81812635  0.02287528  0.47872684    -0.78300
C39         C  0.81285249  0.03409099  0.43180761     0.82500
N40         N  0.80389923  0.05744294  0.43191788    -0.80000
O41         O  0.80625472  0.85469958  0.93753248    -0.85600
O42         O  0.84651462  0.86843640  0.87729687    -0.82700
C43         C  0.85266266  0.88997803  0.89256960     0.97800
O44         O  0.86193759  0.89343245  0.93805983    -0.82700
O45         O  0.87168427  0.88506852  0.04422453    -0.85400
C46         C  0.85094507  0.88825554  0.06728330     1.02400
O47         O  0.83313412  0.87291876  0.06090457    -0.78100
O48         O  0.80362619  0.83659861  0.01510923    -0.78300
C49         C  0.79368804  0.84861220  0.97778413     1.02300
O50         O  0.82502242  0.80490911  0.94740280    -0.85600
O51         O  0.86793085  0.82076963  0.89529962    -0.82700
C52         C  0.88820752  0.83244491  0.88688495     0.97900
O53         O  0.89253913  0.85300548  0.90920208    -0.82700
O54         O  0.89912770  0.84196362  0.01480262    -0.85300
C55         C  0.89358342  0.83469523  0.06088396     1.02300
O56         O  0.87179036  0.83763405  0.07887800    -0.78100
O57         O  0.84416356  0.80297583  0.02424532    -0.78300
C58         C  0.83281534  0.79233832  0.98653819     1.02300
Cr59       Cr  0.83749564  0.83787697  0.91889162     1.93700
Cr60       Cr  0.87922725  0.86688578  0.97682058     1.93200
Cr61       Cr  0.83917214  0.83828852  0.04007205     1.39100
O62         O  0.85202553  0.84768102  0.97849761    -1.23400
C63         C  0.06031081  0.78318316  0.47985147     0.79900
N64         N  0.04809611  0.77815859  0.52602230    -0.78400
C65         C  0.02365628  0.77059203  0.52529588     0.82400
N66         N  0.01166610  0.76806145  0.47801389    -0.78300
C67         C  0.02362062  0.77303222  0.43172880     0.82500
N68         N  0.04789196  0.78086018  0.43298731    -0.80000
C69         C  0.28139010  0.12254479  0.53166661     0.79900
N70         N  0.27450750  0.13442202  0.48630805    -0.78400
C71         C  0.26298352  0.15658545  0.48863639     0.82400
N72         N  0.25848195  0.16685665  0.53658961    -0.78300
C73         C  0.26561968  0.15548089  0.58203885     0.82500
N74         N  0.27707944  0.13334638  0.57935014    -0.80000
O75         O  0.27862510  0.33097157  0.98190547    -0.85600
O76         O  0.23544075  0.31864741  0.92965808    -0.82700
C77         C  0.22958978  0.29768925  0.94852544     0.97800
O78         O  0.22140417  0.29561308  0.99515737    -0.82700
O79         O  0.21748086  0.30621395  0.10130680    -0.85400
C80         C  0.23914254  0.30297423  0.12067928     1.02400
O81         O  0.25681442  0.31800445  0.11052361    -0.78100
O82         O  0.28575182  0.35150585  0.05509188    -0.78300
C83         C  0.29338922  0.33779945  0.01823618     1.02300
O84         O  0.26308246  0.38171221  0.98800888    -0.85600
O85         O  0.21767817  0.36756338  0.94577376    -0.82700
C86         C  0.19632745  0.35732428  0.94266115     0.97900
O87         O  0.19149210  0.33761561  0.96832508    -0.82700
O88         O  0.19022803  0.35007519  0.07376972    -0.85300
C89         C  0.19804676  0.35759807  0.11815740     1.02300
O90         O  0.22069501  0.35492089  0.13129609    -0.78100
O91         O  0.24685013  0.38727017  0.06651551    -0.78300
C92         C  0.25676552  0.39603530  0.02501736     1.02300
Cr93       Cr  0.24778270  0.34918161  0.96611897     1.93700
Cr94       Cr  0.20728257  0.32378380  0.03428604     1.93200
Cr95       Cr  0.25126181  0.35216405  0.08651229     1.39100
O96         O  0.23529630  0.34169642  0.02897369    -1.23400
C97         C  0.01230783  0.38715250  0.52500325     0.79900
N98         N  0.02429923  0.38701656  0.57282690    -0.78400
C99         C  0.04980396  0.38779460  0.57510907     0.82400
N100        N  0.06308725  0.38861345  0.52927538    -0.78300
C101        C  0.05137612  0.38874980  0.48151623     0.82500
N102        N  0.02604207  0.38798034  0.47981356    -0.80000
C103        C  0.31277289  0.61980012  0.00830708     0.79900
N104        N  0.31993087  0.63299882  0.05189426    -0.78400
C105        C  0.32753869  0.65695038  0.04724371     0.82400
N106        N  0.32764587  0.66769942  0.99873149    -0.78300
C107        C  0.32049671  0.65505876  0.95482755     0.82500
N108        N  0.31312402  0.63095222  0.95960507    -0.80000
O109        O  0.29177402  0.85682702  0.52203349    -0.85600
O110        O  0.31660674  0.82186201  0.58021330    -0.82700
C111        C  0.33291457  0.80611726  0.59159584     0.97800
O112        O  0.35495455  0.80839416  0.57358839    -0.82700
O113        O  0.35107347  0.79912640  0.46687617    -0.85400
C114        C  0.34552992  0.80222186  0.41873684     1.02400
O115        O  0.34267571  0.82379881  0.40055172    -0.78100
O116        O  0.29896175  0.83737133  0.44780475    -0.78300
C117        C  0.28405386  0.84360159  0.48375053     1.02300
O118        O  0.33359066  0.89074966  0.53979137    -0.85600
O119        O  0.35553094  0.85699512  0.60550943    -0.82700
C120        C  0.37860223  0.85837287  0.59443032     0.97900
O121        O  0.38642787  0.85065942  0.55052690    -0.82700
O122        O  0.38598767  0.83927280  0.44452737    -0.85300
C123        C  0.38392601  0.85982865  0.42070294     1.02300
O124        O  0.36377484  0.87153934  0.42311528    -0.78100
O125        O  0.31838330  0.88730827  0.45951913    -0.78300
C126        C  0.32569541  0.90069434  0.49783905     1.02300
Cr127      Cr  0.32554379  0.85588833  0.55766313     1.93700
Cr128      Cr  0.36766221  0.82582306  0.50834977     1.93200
Cr129      Cr  0.33160930  0.85437231  0.43748266     1.39100
O130        O  0.34168149  0.84533003  0.50131797    -1.23400
C131        C  0.56705707  0.87830702  0.00425008     0.79900
N132        N  0.55599278  0.88167568  0.05201439    -0.78400
C133        C  0.53095816  0.88548262  0.05492186     0.82400
N134        N  0.51719360  0.88611162  0.00947771    -0.78300
C135        C  0.52812528  0.88284035  0.96153824     0.82500
N136        N  0.55304377  0.87869874  0.95934553    -0.80000
C137        C  0.39651264  0.86792261  0.63448656    -0.03500
C138        C  0.38778815  0.87919262  0.68081126    -0.06100
C139        C  0.40449849  0.88639502  0.72076886    -0.21200
C140        C  0.43019283  0.88220249  0.71561063     0.24600
C141        C  0.43909476  0.87197045  0.66818689    -0.18700
C142        C  0.42238060  0.86488315  0.62805039    -0.08700
C143        C  0.44682797  0.88805129  0.76122180    -0.19000
C144        C  0.46843439  0.87635830  0.77036733    -0.23800
C145        C  0.48355415  0.87985734  0.81922801     0.26600
C146        C  0.50909839  0.87446248  0.81781932    -0.24900
C147        C  0.52369195  0.87596137  0.86376061    -0.10200
C148        C  0.51292033  0.88257255  0.91237607    -0.10700
C149        C  0.48733873  0.88810156  0.91375921    -0.03700
C150        C  0.47277348  0.88671661  0.86772020    -0.18800
H151        H  0.36797623  0.88204578  0.68665829     0.10300
H152        H  0.39722008  0.89451613  0.75662670     0.10400
H153        H  0.45886834  0.86930448  0.66185330     0.10100
H154        H  0.42967800  0.85649125  0.59252712     0.11200
H155        H  0.44015721  0.90129134  0.78985830     0.11300
H156        H  0.47522808  0.86314548  0.74183612     0.13200
H157        H  0.51775868  0.86888863  0.78106605     0.09700
H158        H  0.54332266  0.87147668  0.86126648     0.11800
H159        H  0.47842793  0.89311961  0.95059399     0.08400
H160        H  0.45296637  0.89020625  0.87083631     0.11100
C161        C  0.51836254  0.88692089  0.10703288    -0.03500
C162        C  0.53113476  0.88098290  0.15414738    -0.06100
C163        C  0.51840552  0.87990100  0.20251975    -0.21200
C164        C  0.49278440  0.88504500  0.20495080     0.24600
C165        C  0.48016826  0.89156530  0.15796846    -0.18700
C166        C  0.49283734  0.89256687  0.10970193    -0.08700
C167        C  0.47923714  0.88111075  0.25571977    -0.19000
C168        C  0.45719008  0.89166032  0.26635569    -0.23800
C169        C  0.44087291  0.88459321  0.31176568     0.26600
C170        C  0.42060421  0.89970489  0.32372618    -0.20500
C171        C  0.40264866  0.89217538  0.36083771    -0.10200
C172        C  0.40453947  0.86926400  0.38675063    -0.10700
C173        C  0.42540590  0.85460474  0.37663712    -0.03700
C174        C  0.44332725  0.86209159  0.33936643    -0.18800
H175        H  0.55077371  0.87638244  0.15348614     0.10300
H176        H  0.52848712  0.87455880  0.23799702     0.10400
H177        H  0.46026332  0.89485529  0.15763704     0.10100
H178        H  0.48238672  0.89710283  0.07419539     0.11200
H179        H  0.48761827  0.86878094  0.28446202     0.11300
H180        H  0.45021715  0.90575244  0.23966983     0.13200
H181        H  0.41818681  0.91706370  0.30296922     0.09700
H182        H  0.38684760  0.90395559  0.36791311     0.11800
H183        H  0.42735496  0.83681099  0.39583704     0.08400
H184        H  0.45826565  0.84955759  0.33070620     0.11100
C185        C  0.32669939  0.78554492  0.62841302    -0.03500
C186        C  0.30386051  0.78501285  0.65588431    -0.06100
C187        C  0.29897427  0.76684505  0.69417597    -0.21200
C188        C  0.31658649  0.74860133  0.70527890     0.24600
C189        C  0.33913897  0.74864359  0.67666364    -0.18700
C190        C  0.34412411  0.76694168  0.63864092    -0.08700
C191        C  0.31198163  0.73165571  0.75073053    -0.19000
C192        C  0.32311862  0.70970798  0.75711184    -0.23800
C193        C  0.32097560  0.69540432  0.80730767     0.26600
C194        C  0.32219500  0.66949070  0.80693885    -0.20500
C195        C  0.32135172  0.65600589  0.85463716    -0.10200
C196        C  0.31992188  0.66836636  0.90341295    -0.10700
C197        C  0.31879491  0.69428704  0.90343667    -0.03700
C198        C  0.31931495  0.70761432  0.85615160    -0.18800
H199        H  0.29006221  0.79909159  0.64902689     0.10300
H200        H  0.28156948  0.76734854  0.71603902     0.10400
H201        H  0.35344739  0.73528685  0.68509014     0.10100
H202        H  0.36191859  0.76686790  0.61820338     0.11200
H203        H  0.29899817  0.73780298  0.78079033     0.11300
H204        H  0.33415764  0.70207473  0.72527192     0.13200
H205        H  0.32382051  0.65971608  0.76974559     0.09700
H206        H  0.32243907  0.63606593  0.85346626     0.11800
H207        H  0.31767811  0.70443542  0.94026528     0.08400
H208        H  0.31917889  0.72757596  0.85816760     0.11100
C209        C  0.34333999  0.78092028  0.38236809    -0.03500
C210        C  0.34265789  0.75646251  0.40143272    -0.06100
C211        C  0.34081724  0.73660986  0.36598582    -0.21200
C212        C  0.34012558  0.74089765  0.31104437     0.24600
C213        C  0.34031693  0.76538823  0.29227016    -0.18700
C214        C  0.34196732  0.78510416  0.32744798    -0.08700
C215        C  0.33823548  0.71983711  0.27361652    -0.19000
C216        C  0.34858885  0.72122429  0.22504045    -0.23800
C217        C  0.34440259  0.70309530  0.18174715     0.26600
C218        C  0.35049076  0.71073284  0.13012095    -0.20500
C219        C  0.34555171  0.69545553  0.08695060    -0.10200
C220        C  0.33451151  0.67193893  0.09421156    -0.10700
C221        C  0.32925655  0.66375394  0.14606967    -0.03700
C222        C  0.33408801  0.67922168  0.18956491    -0.18800
H223        H  0.34345318  0.75269363  0.44362577     0.10300
H224        H  0.34027322  0.71790564  0.38138171     0.10400
H225        H  0.33876155  0.76945202  0.25032400     0.10100
H226        H  0.34224430  0.80369713  0.31143887     0.11200
H227        H  0.32776437  0.70350892  0.28611965     0.11300
H228        H  0.35978077  0.73753117  0.21503215     0.13200
H229        H  0.35855970  0.72894355  0.12287633     0.09700
H230        H  0.35008492  0.70232253  0.04767131     0.11800
H231        H  0.32086355  0.64566828  0.15294757     0.08400
H232        H  0.32959640  0.67241456  0.22880855     0.11100
C233        C  0.30392058  0.59377928  0.01461137    -0.03500
C234        C  0.30294941  0.58281516  0.06528695    -0.06100
C235        C  0.29442870  0.55845607  0.07180794    -0.21200
C236        C  0.28686945  0.54429224  0.02795302     0.24600
C237        C  0.28739469  0.55533200  0.97721517    -0.18700
C238        C  0.29592792  0.57976631  0.97065906    -0.08700
C239        C  0.27848974  0.51823921  0.03711924    -0.19000
C240        C  0.27918406  0.50070844  0.99940589    -0.23800
C241        C  0.27268345  0.47409677  0.00806933     0.26600
C242        C  0.27862256  0.45743180  0.96775335    -0.20500
C243        C  0.27336411  0.43223186  0.97338639    -0.10200
C244        C  0.26193287  0.42292544  0.01960973    -0.10700
C245        C  0.25564947  0.43952643  0.05994589    -0.03700
C246        C  0.26088604  0.46486902  0.05426133    -0.18800
H247        H  0.30876845  0.59303566  0.10018291     0.10300
H248        H  0.29403003  0.55054011  0.11134977     0.10400
H249        H  0.28092783  0.54539130  0.94251913     0.10100
H250        H  0.29612403  0.58769290  0.93115086     0.11200
H251        H  0.27323443  0.51325674  0.07728703     0.11300
H252        H  0.28619530  0.50570345  0.96040389     0.13200
H253        H  0.28756841  0.46391098  0.93165070     0.09700
H254        H  0.27837340  0.42001120  0.94138459     0.11800
H255        H  0.24665887  0.43294351  0.09589194     0.08400
H256        H  0.25543035  0.47694722  0.08600925     0.11100
C257        C  0.18064948  0.36847607  0.15661976    -0.03500
C258        C  0.19002846  0.37867910  0.20399485    -0.06100
C259        C  0.17377468  0.38699722  0.24284776    -0.21200
C260        C  0.14779260  0.38509497  0.23559089     0.24600
C261        C  0.13831308  0.37597484  0.18711926    -0.18700
C262        C  0.15464194  0.36773128  0.14797530    -0.08700
C263        C  0.13156244  0.39189731  0.28059214    -0.19000
C264        C  0.10830048  0.38258060  0.28775599    -0.23800
C265        C  0.09408438  0.38611154  0.33742580     0.26600
C266        C  0.06787806  0.38455206  0.33582351    -0.20500
C267        C  0.05395731  0.38600243  0.38245538    -0.10200
C268        C  0.06603509  0.38868159  0.43183335    -0.10700
C269        C  0.09230400  0.39037555  0.43338190    -0.03700
C270        C  0.10619591  0.38904735  0.38674358    -0.18800
H271        H  0.20998322  0.37976919  0.21164226     0.10300
H272        H  0.18155695  0.39415822  0.27956937     0.10400
H273        H  0.11840702  0.37499437  0.17928065     0.10100
H274        H  0.14688871  0.36021376  0.11158077     0.11200
H275        H  0.13992410  0.40354085  0.31108063     0.11300
H276        H  0.09951695  0.37118365  0.25742455     0.13200
H277        H  0.05815936  0.38199640  0.29838907     0.09700
H278        H  0.03374716  0.38453408  0.37982116     0.11800
H279        H  0.10221678  0.39227478  0.47074063     0.08400
H280        H  0.12640082  0.38942046  0.38985172     0.11100
C281        C  0.17733781  0.36750692  0.90613052    -0.03500
C282        C  0.18320554  0.38794656  0.87363750    -0.06100
C283        C  0.16642330  0.39562594  0.83453395    -0.21200
C284        C  0.14334777  0.38324670  0.82738964     0.24600
C285        C  0.13699523  0.36348279  0.86149284    -0.18700
C286        C  0.15380377  0.35575951  0.90050551    -0.08700
C287        C  0.12791716  0.38947090  0.78027800    -0.19000
C288        C  0.10355912  0.38306518  0.77477253    -0.23800
C289        C  0.09003391  0.38546161  0.72353709     0.26600
C290        C  0.06394648  0.38819668  0.72314478    -0.20500
C291        C  0.05071563  0.38913317  0.67507960    -0.10200
C292        C  0.06337314  0.38710768  0.62652724    -0.10700
C293        C  0.08947678  0.38411547  0.62719567    -0.03700
C294        C  0.10261602  0.38320891  0.67499766    -0.18800
H295        H  0.20115464  0.39745401  0.87703789     0.10300
H296        H  0.17183107  0.41081213  0.80863389     0.10400
H297        H  0.11969092  0.35305471  0.85657210     0.10100
H298        H  0.14872428  0.33994845  0.92489601     0.11200
H299        H  0.13734789  0.39916643  0.74802836     0.11300
H300        H  0.09317971  0.37562689  0.80831804     0.13200
H301        H  0.05380442  0.38959960  0.76010302     0.09700
H302        H  0.03062152  0.39138066  0.67597418     0.11800
H303        H  0.09985046  0.38209986  0.59069779     0.08400
H304        H  0.12254950  0.38004486  0.67371114     0.11100
C305        C  0.24363310  0.28198408  0.15713165    -0.03500
C306        C  0.26748020  0.27861723  0.17954300    -0.06100
C307        C  0.27155577  0.25950763  0.21576415    -0.21200
C308        C  0.25188427  0.24349334  0.23079404     0.24600
C309        C  0.22818976  0.24632400  0.20717588    -0.18700
C310        C  0.22411604  0.26540521  0.17076062    -0.08700
C311        C  0.25674631  0.22426047  0.27148122    -0.19000
C312        C  0.23897682  0.21571073  0.30488236    -0.23800
C313        C  0.24457613  0.19903868  0.35000283     0.26600
C314        C  0.23074174  0.20134708  0.39677927    -0.20500
C315        C  0.23647834  0.18719101  0.44142099    -0.10200
C316        C  0.25582433  0.16997991  0.43983173    -0.10700
C317        C  0.26891907  0.16676048  0.39220335    -0.03700
C318        C  0.26345778  0.18128727  0.34769352    -0.18800
H319        H  0.28297842  0.29094169  0.16961317     0.10300
H320        H  0.29002147  0.25758150  0.23304432     0.10400
H321        H  0.21279407  0.23381034  0.21654152     0.10100
H322        H  0.20561475  0.26730274  0.15368223     0.11200
H323        H  0.27601571  0.21876106  0.27736349     0.11300
H324        H  0.22025613  0.22313253  0.30269703     0.13200
H325        H  0.21595206  0.21471183  0.39932099     0.09700
H326        H  0.22588538  0.18988192  0.47742799     0.11800
H327        H  0.28386915  0.15357417  0.38985359     0.08400
H328        H  0.27401653  0.17863387  0.31166825     0.11100
C329        C  0.23197237  0.27587061  0.91437417    -0.03500
C330        C  0.21355841  0.25703448  0.91386640    -0.06100
C331        C  0.21467603  0.23798909  0.87649283    -0.21200
C332        C  0.23462509  0.23710458  0.84043466     0.24600
C333        C  0.25348427  0.25553466  0.84247150    -0.18700
C334        C  0.25204387  0.27480088  0.87879847    -0.08700
C335        C  0.23439037  0.21833895  0.79776150    -0.19000
C336        C  0.25560139  0.20922698  0.77768251    -0.23800
C337        C  0.25614328  0.19366377  0.72952325     0.26600
C338        C  0.27525907  0.17646541  0.72383064    -0.20500
C339        C  0.27775530  0.16327648  0.67661296    -0.10200
C340        C  0.26158830  0.16761211  0.63364770    -0.10700
C341        C  0.24231624  0.18470218  0.63948357    -0.03700
C342        C  0.23948853  0.19748219  0.68708308    -0.18800
H343        H  0.19778687  0.25766570  0.94067559     0.10300
H344        H  0.19980501  0.22412570  0.87521630     0.10400
H345        H  0.26877236  0.25575181  0.81439901     0.10100
H346        H  0.26643141  0.28917564  0.87850166     0.11200
H347        H  0.21637030  0.21219484  0.78204935     0.11300
H348        H  0.27338497  0.21351979  0.79692204     0.13200
H349        H  0.28849657  0.17348319  0.75578289     0.09700
H350        H  0.29291056  0.15038448  0.67302766     0.11800
H351        H  0.22961016  0.18843267  0.60695248     0.08400
H352        H  0.22496196  0.21109252  0.68974589     0.11100
C353        C  0.32433337  0.92795867  0.49387182    -0.03500
C354        C  0.31176064  0.93908642  0.45122785    -0.06100
C355        C  0.30988940  0.96477441  0.44819593    -0.21200
C356        C  0.32045376  0.97996491  0.48769040     0.24600
C357        C  0.33393680  0.96887492  0.52930919    -0.18700
C358        C  0.33569407  0.94315189  0.53249151    -0.08700
C359        C  0.31643278  0.00708960  0.48437924    -0.19000
C360        C  0.31749514  0.02214926  0.52686017    -0.23800
C361        C  0.30999138  0.04854010  0.52606796     0.26600
C362        C  0.30523601  0.06001133  0.57474104    -0.20500
C363        C  0.29657771  0.08417209  0.57653560    -0.10200
C364        C  0.29245621  0.09759187  0.52955091    -0.10700
C365        C  0.29810473  0.08650429  0.48077872    -0.03700
C366        C  0.30689263  0.06230202  0.47898930    -0.18800
H367        H  0.30299806  0.92792531  0.42055304     0.10300
H368        H  0.29963144  0.97278254  0.41541326     0.10400
H369        H  0.34323073  0.97987374  0.55945967     0.10100
H370        H  0.34597797  0.93515616  0.56523760     0.11200
H371        H  0.31014045  0.01423007  0.44648954     0.11300
H372        H  0.32200203  0.01440284  0.56538817     0.13200
H373        H  0.30765280  0.05002263  0.61167893     0.09700
H374        H  0.29258320  0.09209785  0.61488032     0.11800
H375        H  0.29547996  0.09641615  0.44384001     0.08400
H376        H  0.31109180  0.05460518  0.44063795     0.11100
C377        C  0.08634675  0.79272865  0.48040244    -0.03500
C378        C  0.09412293  0.81035465  0.44255969    -0.06100
C379        C  0.11856268  0.81995977  0.44338646    -0.21200
C380        C  0.13587001  0.81146249  0.48077458     0.24600
C381        C  0.12826050  0.79363656  0.51835716    -0.18700
C382        C  0.10354362  0.78458488  0.51862058    -0.08700
C383        C  0.16159558  0.82191669  0.48080247    -0.19000
C384        C  0.18172053  0.80748244  0.48357895    -0.23800
C385        C  0.20756812  0.81773613  0.48177165     0.26600
C386        C  0.22598729  0.80498315  0.45413882    -0.20500
C387        C  0.25070722  0.81390423  0.45324777    -0.10200
C388        C  0.25756270  0.83537226  0.48133186    -0.10700
C389        C  0.23911332  0.84809309  0.50918693    -0.03700
C390        C  0.21427148  0.83948607  0.50900055    -0.18800
H391        H  0.08114139  0.81706837  0.41295115     0.10300
H392        H  0.12408913  0.83379354  0.41432388     0.10400
H393        H  0.14129952  0.78709426  0.54802244     0.10100
H394        H  0.09794695  0.77101380  0.54817034     0.11200
H395        H  0.16404234  0.84167586  0.47443950     0.11300
H396        H  0.17914627  0.78751795  0.48405258     0.13200
H397        H  0.22120569  0.78811877  0.43312939     0.09700
H398        H  0.26460899  0.80360915  0.43186978     0.11800
H399        H  0.24392234  0.86462783  0.53131329     0.08400
H400        H  0.20046567  0.84942652  0.53139290     0.11100
C401        C  0.59384352  0.87304287  0.00099376    -0.03500
C402        C  0.60226821  0.85555700  0.96454035    -0.06100
C403        C  0.62764883  0.85016767  0.96164042    -0.21200
C404        C  0.64501410  0.86279224  0.99381080     0.24600
C405        C  0.63663153  0.88042642  0.03009552    -0.18700
C406        C  0.61113446  0.88531197  0.03406799    -0.08700
C407        C  0.67167145  0.85659639  0.99026869    -0.19000
C408        C  0.68994221  0.87387278  0.99330570    -0.23800
C409        C  0.71651044  0.86730149  0.98955403     0.26600
C410        C  0.73308430  0.88254032  0.96077210    -0.20500
C411        C  0.75820759  0.87622275  0.95595002    -0.10200
C412        C  0.76715374  0.85498046  0.98126085    -0.10700
C413        C  0.75067335  0.84011831  0.01127033    -0.03700
C414        C  0.72549426  0.84611084  0.01502966    -0.18800
H415        H  0.58914737  0.84574630  0.93898726     0.10300
H416        H  0.63379022  0.83636198  0.93381382     0.10400
H417        H  0.64970731  0.89003137  0.05606636     0.10100
H418        H  0.60494498  0.89885631  0.06242166     0.11200
H419        H  0.67633448  0.83753788  0.98205395     0.11300
H420        H  0.68527533  0.89328553  0.99560659     0.13200
H421        H  0.72647528  0.89907034  0.94131835     0.09700
H422        H  0.77071996  0.88811502  0.93320770     0.11800
H423        H  0.75721763  0.82372949  0.03138240     0.08400
H424        H  0.71312069  0.83437483  0.03844038     0.11100
C425        C  0.91261705  0.82341054  0.09520735    -0.03500
C426        C  0.93824467  0.82765140  0.08616487    -0.06100
C427        C  0.95600620  0.81836210  0.12148853    -0.21200
C428        C  0.94849290  0.80432020  0.16579128     0.24600
C429        C  0.92280283  0.79955117  0.17389756    -0.18700
C430        C  0.90509476  0.80901045  0.13894274    -0.08700
C431        C  0.96761318  0.79721314  0.20549563    -0.19000
C432        C  0.96411489  0.77882373  0.24097284    -0.23800
C433        C  0.98087001  0.77506708  0.28719786     0.26600
C434        C  0.97077511  0.76402449  0.33296125    -0.20500
C435        C  0.98492541  0.76262873  0.37948058    -0.10200
C436        C  0.00961418  0.77205525  0.38102125    -0.10700
C437        C  0.02021850  0.78179982  0.33430277    -0.03700
C438        C  0.00602527  0.78325196  0.28779230    -0.18800
H439        H  0.94450883  0.83880909  0.05283785     0.10300
H440        H  0.97565524  0.82252940  0.11475866     0.10400
H441        H  0.91609733  0.78951784  0.20834106     0.10100
H442        H  0.88542787  0.80541908  0.14672246     0.11200
H443        H  0.98448885  0.80863438  0.20708899     0.11300
H444        H  0.94726498  0.76735994  0.23899854     0.13200
H445        H  0.95153216  0.75733267  0.33336432     0.09700
H446        H  0.97626656  0.75472337  0.41458473     0.11800
H447        H  0.03928427  0.78895280  0.33394911     0.08400
H448        H  0.01480248  0.79101112  0.25276115     0.11100
C449        C  0.00909516  0.76822490  0.57502296    -0.03500
C450        C  0.01852134  0.77791680  0.62287163    -0.06100
C451        C  0.00299902  0.77973949  0.66718743    -0.21200
C452        C  0.97775148  0.77189675  0.66438728     0.24600
C453        C  0.96900707  0.76030734  0.61813095    -0.18700
C454        C  0.98444303  0.75860904  0.57377374    -0.08700
C455        C  0.95967684  0.77683107  0.70747121    -0.19000
C456        C  0.96155293  0.79722821  0.73773940    -0.23800
C457        C  0.94232376  0.80516719  0.77633273     0.26600
C458        C  0.94431484  0.82927474  0.79631378    -0.20500
C459        C  0.92682070  0.83798497  0.83228062    -0.10200
C460        C  0.90677813  0.82278889  0.84921235    -0.10700
C461        C  0.90467756  0.79861764  0.82942908    -0.03700
C462        C  0.92233902  0.78980289  0.79356632    -0.18800
H463        H  0.03750807  0.78519334  0.62540970     0.10300
H464        H  0.01062642  0.78786205  0.70305777     0.10400
H465        H  0.94976264  0.75374544  0.61530367     0.10100
H466        H  0.97668907  0.75066921  0.53779547     0.11200
H467        H  0.94320014  0.76490504  0.70983095     0.11300
H468        H  0.97727115  0.80988882  0.73136089     0.13200
H469        H  0.95944027  0.84154945  0.78380472     0.09700
H470        H  0.92892205  0.85676177  0.84649557     0.11800
H471        H  0.88948866  0.78644615  0.84198363     0.08400
H472        H  0.92025318  0.77095837  0.78014072     0.11100
C473        C  0.84817571  0.90927714  0.10421337    -0.03500
C474        C  0.86948266  0.92212617  0.12308672    -0.06100
C475        C  0.86727367  0.94053963  0.16136614    -0.21200
C476        C  0.84372817  0.94690027  0.18101144     0.24600
C477        C  0.82225808  0.93463108  0.16095075    -0.18700
C478        C  0.82449515  0.91593864  0.12305780    -0.08700
C479        C  0.84263181  0.96450120  0.22598260    -0.19000
C480        C  0.82237205  0.97775447  0.23821568    -0.23800
C481        C  0.82121674  0.99295157  0.28710079     0.26600
C482        C  0.80653954  0.01419014  0.28784930    -0.20500
C483        C  0.80431433  0.02804453  0.33439577    -0.10200
C484        C  0.81630064  0.02055761  0.38141412    -0.10700
C485        C  0.83092389  0.99925569  0.38053980    -0.03700
C486        C  0.83339735  0.98565001  0.33400265    -0.18800
H487        H  0.88800281  0.91738872  0.10959043     0.10300
H488        H  0.88410839  0.94955253  0.17645525     0.10400
H489        H  0.80384142  0.93863418  0.17601638     0.10100
H490        H  0.80772893  0.90636946  0.10926875     0.11200
H491        H  0.85943747  0.96663746  0.25006912     0.11300
H492        H  0.80632009  0.97774795  0.21166769     0.13200
H493        H  0.79674908  0.02003093  0.25237787     0.09700
H494        H  0.79273707  0.04425105  0.33387764     0.11800
H495        H  0.84033722  0.99290985  0.41605539     0.08400
H496        H  0.84424554  0.96897571  0.33536112     0.11100
C497        C  0.81887400  0.02148593  0.57599756    -0.03500
C498        C  0.80371378  0.02564029  0.62035037    -0.06100
C499        C  0.80650755  0.01143667  0.66640363    -0.21200
C500        C  0.82501077  0.99343237  0.66954729     0.24600
C501        C  0.84082945  0.98993127  0.62587529    -0.18700
C502        C  0.83761791  0.00368360  0.57936396    -0.08700
C503        C  0.82583383  0.97689536  0.71645742    -0.19000
C504        C  0.84719111  0.96742728  0.73540906    -0.23800
C505        C  0.84731687  0.94865769  0.77833909     0.26600
C506        C  0.86691907  0.94866163  0.81554719    -0.20500
C507        C  0.86807469  0.93015415  0.85439325    -0.10200
C508        C  0.85009140  0.91089356  0.85540313    -0.10700
C509        C  0.83052755  0.91086385  0.81809447    -0.03700
C510        C  0.82899559  0.92969551  0.78024047    -0.18800
H511        H  0.78901007  0.03913003  0.61862601     0.10300
H512        H  0.79396748  0.01426144  0.69941730     0.10400
H513        H  0.85491626  0.97581487  0.62672432     0.10100
H514        H  0.84955939  0.00015196  0.54570006     0.11200
H515        H  0.80824008  0.97242388  0.73610963     0.11300
H516        H  0.86507186  0.97371484  0.71940043     0.13200
H517        H  0.88138523  0.96293998  0.81436702     0.09700
H518        H  0.88352746  0.93036506  0.88234604     0.11800
H519        H  0.81653640  0.89612050  0.81794294     0.08400
H520        H  0.81400036  0.92890028  0.75124372     0.11100
C521        C  0.77992686  0.59485201  0.98233433    -0.03500
C522        C  0.78301124  0.60613287  0.93237029    -0.06100
C523        C  0.79015218  0.63105943  0.92816710    -0.21200
C524        C  0.79459110  0.64543160  0.97362711     0.24600
C525        C  0.79185194  0.63407757  0.02375536    -0.18700
C526        C  0.78469617  0.60909726  0.02796668    -0.08700
C527        C  0.80084277  0.67228361  0.96656962    -0.19000
C528        C  0.81053616  0.68698922  0.00492891    -0.23800
C529        C  0.81643312  0.71389142  0.99765140     0.26600
C530        C  0.83282185  0.72556053  0.03379155    -0.20500
C531        C  0.83839015  0.75086592  0.02973007    -0.10200
C532        C  0.82762776  0.76526293  0.98939972    -0.10700
C533        C  0.81119386  0.75365570  0.95315120    -0.03700
C534        C  0.80554069  0.72832238  0.95733177    -0.18800
H535        H  0.77953041  0.59582681  0.89628609     0.10300
H536        H  0.79200162  0.63922002  0.88903678     0.10400
H537        H  0.79449332  0.64441787  0.05997198     0.10100
H538        H  0.78244991  0.60108991  0.06712924     0.11200
H539        H  0.79793596  0.67994583  0.92726259     0.11300
H540        H  0.81532820  0.67899232  0.04304181     0.13200
H541        H  0.84136072  0.71504231  0.06547796     0.09700
H542        H  0.85107031  0.75918127  0.05844491     0.11800
H543        H  0.80230322  0.76425341  0.92206191     0.08400
H544        H  0.79220274  0.72037974  0.92960743     0.11100
C545        C  0.80953219  0.35453115  0.50980015    -0.03500
C546        C  0.81843123  0.36183711  0.56005002    -0.06100
C547        C  0.84397447  0.36615947  0.56878812    -0.21200
C548        C  0.86120020  0.36362895  0.52746118     0.24600
C549        C  0.85236804  0.35628307  0.47710044    -0.18700
C550        C  0.82679002  0.35183831  0.46838835    -0.08700
C551        C  0.88825076  0.36786499  0.53889630    -0.19000
C552        C  0.90466879  0.37554758  0.50167278    -0.23800
C553        C  0.93204994  0.37937690  0.51059741     0.26600
C554        C  0.94711317  0.38358437  0.46593991    -0.20500
C555        C  0.97297691  0.38652414  0.47098847    -0.10200
C556        C  0.98461227  0.38540511  0.52105623    -0.10700
C557        C  0.96957588  0.38185220  0.56616624    -0.03700
C558        C  0.94354499  0.37887694  0.56109041    -0.18800
H559        H  0.80568512  0.36393401  0.59296371     0.10300
H560        H  0.85030632  0.37157345  0.60800397     0.10400
H561        H  0.86515845  0.35331416  0.44467783     0.10100
H562        H  0.82058806  0.34593638  0.42942646     0.11200
H563        H  0.89435665  0.36499605  0.57943307     0.11300
H564        H  0.89778065  0.37907212  0.46183251     0.13200
H565        H  0.93887207  0.38425648  0.42662370     0.09700
H566        H  0.98385888  0.38940660  0.43527065     0.11800
H567        H  0.97792351  0.38105480  0.60533838     0.08400
H568        H  0.93276489  0.37621473  0.59686546     0.11100
C569        C  0.75271957  0.26506973  0.45952763    -0.03500
C570        C  0.74347205  0.25182866  0.41556859    -0.06100
C571        C  0.74839392  0.22664177  0.41015897    -0.21200
C572        C  0.76254566  0.21420689  0.44865461     0.24600
C573        C  0.77249651  0.22772549  0.49162262    -0.18700
C574        C  0.76747974  0.25277218  0.49716568    -0.08700
C575        C  0.76713346  0.18735457  0.44231081    -0.19000
C576        C  0.77210572  0.17241069  0.48385015    -0.23800
C577        C  0.77779577  0.14565956  0.47994427     0.26600
C578        C  0.77922734  0.13192630  0.52719045    -0.20500
C579        C  0.78596484  0.10713734  0.52658357    -0.10200
C580        C  0.79148218  0.09537555  0.47855059    -0.10700
C581        C  0.78960971  0.10893225  0.43103124    -0.03700
C582        C  0.78295991  0.13382320  0.43165066    -0.18800
H583        H  0.73215246  0.26083931  0.38571775     0.10300
H584        H  0.74083065  0.21676491  0.37628257     0.10400
H585        H  0.78445234  0.21918335  0.52088048     0.10100
H586        H  0.77527607  0.26253636  0.53096848     0.11200
H587        H  0.76542076  0.17982431  0.40271406     0.11300
H588        H  0.77163208  0.18001073  0.52356344     0.13200
H589        H  0.77543029  0.14050381  0.56499471     0.09700
H590        H  0.78713671  0.09730443  0.56396759     0.11800
H591        H  0.79384587  0.10049325  0.39333181     0.08400
H592        H  0.78255969  0.14365687  0.39431552     0.11100
C593        C  0.75319252  0.52274463  0.09140294    -0.03500
C594        C  0.76567152  0.53135571  0.13711331    -0.06100
C595        C  0.76331907  0.51853395  0.18531898    -0.21200
C596        C  0.74800508  0.49724105  0.18909233     0.24600
C597        C  0.73492148  0.48908526  0.14372917    -0.18700
C598        C  0.73755063  0.50164694  0.09549997    -0.08700
C599        C  0.74772096  0.48256602  0.23907931    -0.19000
C600        C  0.72790517  0.46847999  0.25397901    -0.23800
C601        C  0.72837041  0.45081309  0.29923690     0.26600
C602        C  0.70563904  0.44353660  0.32276071    -0.20500
C603        C  0.70482584  0.42464128  0.36068797    -0.10200
C604        C  0.72672781  0.41225121  0.37531952    -0.10700
C605        C  0.74964669  0.42005316  0.35304229    -0.03700
C606        C  0.75048907  0.43916809  0.31544921    -0.18800
H607        H  0.77793736  0.54748140  0.13521356     0.10300
H608        H  0.77375371  0.52505590  0.21958830     0.10400
H609        H  0.72346314  0.47239718  0.14471808     0.10100
H610        H  0.72763105  0.49453146  0.06109753     0.11200
H611        H  0.76435647  0.48332879  0.26394698     0.11300
H612        H  0.71050510  0.46970075  0.23175173     0.13200
H613        H  0.68832453  0.45207695  0.31071846     0.09700
H614        H  0.68683430  0.41906346  0.37689694     0.11800
H615        H  0.76682749  0.41082651  0.36330391     0.08400
H616        H  0.76827540  0.44386846  0.29728365     0.11100
C617        C  0.72273901  0.39724669  0.62868956    -0.03500
C618        C  0.72542186  0.38880908  0.68112856    -0.06100
C619        C  0.72911445  0.40541976  0.72263029    -0.21200
C620        C  0.73041035  0.43096095  0.71311039     0.24600
C621        C  0.72744891  0.43956260  0.66058367    -0.18700
C622        C  0.72361422  0.42281578  0.61880578    -0.08700
C623        C  0.73432876  0.44744915  0.75975970    -0.19000
C624        C  0.73898596  0.47200959  0.75755468    -0.23800
C625        C  0.74277834  0.48739349  0.80602923     0.26600
C626        C  0.75595151  0.51002866  0.80206177    -0.20500
C627        C  0.76021584  0.52470372  0.84701171    -0.10200
C628        C  0.75135228  0.51703704  0.89700848    -0.10700
C629        C  0.73762446  0.49469493  0.90068123    -0.03700
C630        C  0.73320053  0.48017808  0.85582891    -0.18800
H631        H  0.72466202  0.36924764  0.69027695     0.10300
H632        H  0.73109400  0.39818201  0.76253541     0.10400
H633        H  0.72787421  0.45906020  0.65132799     0.10100
H634        H  0.72160205  0.42984836  0.57876611     0.11200
H635        H  0.73413535  0.43841188  0.79822930     0.11300
H636        H  0.74116145  0.48114309  0.71947599     0.13200
H637        H  0.76327478  0.51622320  0.76416661     0.09700
H638        H  0.77077614  0.54185467  0.84270496     0.11800
H639        H  0.73011279  0.48840336  0.93832762     0.08400
H640        H  0.72197395  0.46350419  0.86055601     0.11100
C641        C  0.66767111  0.32255664  0.35829617    -0.03500
C642        C  0.64306808  0.31646477  0.37399036    -0.06100
C643        C  0.62574267  0.30691224  0.33741965    -0.21200
C644        C  0.63267964  0.30290747  0.28462182     0.24600
C645        C  0.65731745  0.30891010  0.26885559    -0.18700
C646        C  0.67462462  0.31856938  0.30536292    -0.08700
C647        C  0.61337974  0.29415876  0.24619158    -0.19000
C648        C  0.61899146  0.28119377  0.20249676    -0.23800
C649        C  0.60076220  0.27530311  0.15945942     0.26600
C650        C  0.61023287  0.26998528  0.10908223    -0.20500
C651        C  0.59417177  0.26678328  0.06581656    -0.10200
C652        C  0.56812258  0.26866145  0.07190531    -0.10700
C653        C  0.55846805  0.27250803  0.12296339    -0.03700
C654        C  0.57460805  0.27576791  0.16639009    -0.18800
H655        H  0.63709579  0.31928155  0.41448784     0.10300
H656        H  0.60682412  0.30267361  0.35037927     0.10400
H657        H  0.66311952  0.30689573  0.22805651     0.10100
H658        H  0.69336525  0.32321829  0.29191407     0.11200
H659        H  0.59419840  0.29919064  0.25399601     0.11300
H660        H  0.63827698  0.27600307  0.19603398     0.13200
H661        H  0.63025160  0.26921186  0.10268297     0.09700
H662        H  0.60230881  0.26355534  0.02724179     0.11800
H663        H  0.53848173  0.27373015  0.12918666     0.08400
H664        H  0.56645498  0.27889951  0.20489447     0.11100
C665        C  0.55917660  0.27155748  0.87819342    -0.03500
C666        C  0.54479115  0.27589390  0.83236700    -0.06100
C667        C  0.55631329  0.27845223  0.78286611    -0.21200
C668        C  0.58235368  0.27643611  0.77802090     0.24600
C669        C  0.59670535  0.27183668  0.82379787    -0.18700
C670        C  0.58523347  0.26934078  0.87318557    -0.08700
C671        C  0.59427567  0.28172827  0.72602379    -0.19000
C672        C  0.61717983  0.27366265  0.71322527    -0.23800
C673        C  0.63220732  0.28326590  0.66781295     0.26600
C674        C  0.65507003  0.27201956  0.65656338    -0.20500
C675        C  0.67200839  0.28293060  0.62096574    -0.10200
C676        C  0.66643271  0.30542980  0.59608002    -0.10700
C677        C  0.64291350  0.31584279  0.60462366    -0.03700
C678        C  0.62600008  0.30496968  0.64014345    -0.18800
H679        H  0.52468870  0.27782586  0.83481278     0.10300
H680        H  0.54489406  0.28236243  0.74834222     0.10400
H681        H  0.61690767  0.27110703  0.82219220     0.10100
H682        H  0.59693709  0.26620094  0.90763769     0.11200
H683        H  0.58397775  0.29321145  0.69858690     0.11300
H684        H  0.62612495  0.26033102  0.73901018     0.13200
H685        H  0.66035938  0.25531033  0.67721234     0.09700
H686        H  0.68993001  0.27436231  0.61493330     0.11800
H687        H  0.63797015  0.33306232  0.58561770     0.08400
H688        H  0.60882564  0.31454804  0.64759874     0.11100
C689        C  0.48435559  0.27559601  0.99074524    -0.03500
C690        C  0.47127100  0.26597601  0.03469236    -0.06100
C691        C  0.44556429  0.26980126  0.03986383    -0.21200
C692        C  0.43282794  0.28398670  0.00218604     0.24600
C693        C  0.44581505  0.29345250  0.95807147    -0.18700
C694        C  0.47130417  0.28905156  0.95209111    -0.08700
C695        C  0.40597708  0.28889425  0.00910374    -0.19000
C696        C  0.39724030  0.31190122  0.00483400    -0.23800
C697        C  0.37046155  0.31744014  0.01077757     0.26600
C698        C  0.36357234  0.33879622  0.03788991    -0.20500
C699        C  0.33839408  0.34507644  0.04163521    -0.10200
C700        C  0.31981162  0.33050113  0.01672343    -0.10700
C701        C  0.32674046  0.30911459  0.98950479    -0.03700
C702        C  0.35185708  0.30249145  0.98699138    -0.18800
H703        H  0.48088854  0.25540693  0.06482397     0.10300
H704        H  0.43574318  0.26225409  0.07396000     0.10400
H705        H  0.43618668  0.30415601  0.92816507     0.10100
H706        H  0.48093199  0.29669560  0.91785045     0.11200
H707        H  0.39351315  0.27372991  0.02062069     0.11300
H708        H  0.41030315  0.32729768  0.99889106     0.13200
H709        H  0.37771127  0.35060014  0.05620300     0.09700
H710        H  0.33352287  0.36168481  0.06274254     0.11800
H711        H  0.31273044  0.29753727  0.97013450     0.08400
H712        H  0.35681619  0.28613479  0.96510383     0.11100
loop_ 
_geom_bond_atom_site_label_1 
_geom_bond_atom_site_label_2 
_geom_bond_distance 
_geom_bond_site_symmetry_2 
_ccdc_geom_bond_type 
C1            N2   1.359       .  A
C1            N6   1.361   1_556  A
C1          C689   1.476       .  S
N2            C3   1.357       .  A
C3            N4   1.356       .  A
C3          C665   1.481       .  S
N4            C5   1.357   1_556  A
C5            N6   1.360       .  A
C5          C652   1.483       .  S
O7          Cr25   1.967       .  S
O7           C15   1.260       .  A
O8          Cr25   2.004       .  S
O8            C9   1.266       .  A
C9          C617   1.482       .  S
C9           O10   1.263       .  A
O10         Cr26   1.990       .  S
O11         Cr26   2.005       .  S
O11          C12   1.265       .  A
C12         C604   1.484       .  S
C12          O13   1.261       .  A
O13         Cr27   1.982       .  S
O14         Cr27   2.021       .  S
O14          C15   1.271       .  A
C15         C545   1.482       .  S
O16         Cr25   2.002       .  S
O16          C24   1.263       .  A
O17         Cr25   1.977       .  S
O17          C18   1.260       .  A
C18         C676   1.479       .  S
C18          O19   1.267       .  A
O19         Cr26   2.006       .  S
O20         Cr26   1.972       .  S
O20          C21   1.261       .  A
C21         C641   1.482       .  S
C21          O22   1.269       .  A
O22         Cr27   2.015       .  S
O23         Cr27   1.981       .  S
O23          C24   1.259       .  A
C24         C569   1.480       .  S
Cr25         O28   1.766       .  S
Cr26         O28   1.768       .  S
Cr27         O28   1.769       .  S
C29          N30   1.363       .  A
C29          N34   1.363   1_556  A
C29         C521   1.490       .  S
N30          C31   1.360       .  A
C31          N32   1.357       .  A
C31         C628   1.486       .  S
N32          C33   1.357   1_556  A
C33          N34   1.361       .  A
C33         C593   1.484       .  S
C35          N36   1.361       .  A
C35          N40   1.362       .  A
C35         C580   1.485       .  S
N36          C37   1.358       .  A
C37          N38   1.357       .  A
C37         C497   1.477       .  S
N38          C39   1.358       .  A
C39          N40   1.360       .  A
C39         C484   1.483       .  S
O41         Cr59   1.975       .  S
O41          C49   1.258       .  A
O42         Cr59   2.007       .  S
O42          C43   1.267       .  A
C43         C508   1.475       .  S
C43          O44   1.261       .  A
O44         Cr60   1.976       .  S
O45         Cr60   2.013   1_554  S
O45          C46   1.268       .  A
C46         C473   1.483       .  S
C46          O47   1.261       .  A
O47         Cr61   1.982       .  S
O48         Cr61   1.999       .  S
O48          C49   1.263   1_554  A
C49         C412   1.468       .  S
O50         Cr59   2.024       .  S
O50          C58   1.270       .  A
O51         Cr59   1.981       .  S
O51          C52   1.262       .  A
C52         C460   1.480       .  S
C52          O53   1.266       .  A
O53         Cr60   2.004       .  S
O54         Cr60   1.976   1_554  S
O54          C55   1.260       .  A
C55         C425   1.472       .  S
C55          O56   1.264       .  A
O56         Cr61   1.996       .  S
O57         Cr61   1.978       .  S
O57          C58   1.261   1_554  A
C58         C532   1.488       .  S
Cr59         O62   1.768       .  S
Cr60         O62   1.771       .  S
Cr61         O62   1.769   1_554  S
C63          N64   1.360       .  A
C63          N68   1.358       .  A
C63         C377   1.475       .  S
N64          C65   1.361       .  A
C65          N66   1.357       .  A
C65         C449   1.482       .  S
N66          C67   1.356       .  A
C67          N68   1.357       .  A
C67         C436   1.479       .  S
C69          N70   1.362       .  A
C69          N74   1.361       .  A
C69         C364   1.486       .  S
N70          C71   1.360       .  A
C71          N72   1.357       .  A
C71         C316   1.478       .  S
N72          C73   1.355       .  A
C73          N74   1.358       .  A
C73         C340   1.478       .  S
O75         Cr93   1.974       .  S
O75          C83   1.258   1_556  A
O76         Cr93   1.995       .  S
O76          C77   1.263       .  A
C77         C329   1.472       .  S
C77          O78   1.260       .  A
O78         Cr94   1.982   1_556  S
O79         Cr94   2.014       .  S
O79          C80   1.269       .  A
C80         C305   1.481       .  S
C80          O81   1.261       .  A
O81         Cr95   1.971       .  S
O82         Cr95   2.009       .  S
O82          C83   1.265       .  A
C83         C700   1.473       .  S
O84         Cr93   2.006       .  S
O84          C92   1.266   1_556  A
O85         Cr93   1.972       .  S
O85          C86   1.261       .  A
C86         C281   1.480       .  S
C86          O87   1.269       .  A
O87         Cr94   2.010   1_556  S
O88         Cr94   1.978       .  S
O88          C89   1.259       .  A
C89         C257   1.477       .  S
C89          O90   1.264       .  A
O90         Cr95   1.997       .  S
O91         Cr95   1.983       .  S
O91          C92   1.261       .  A
C92         C244   1.483       .  S
Cr93         O96   1.764   1_556  S
Cr94         O96   1.773       .  S
Cr95         O96   1.770       .  S
C97          N98   1.363       .  A
C97         N102   1.357       .  A
C97         C556   1.484   1_455  S
N98          C99   1.363       .  A
C99         N100   1.358       .  A
C99         C292   1.483       .  S
N100        C101   1.355       .  A
C101        N102   1.354       .  A
C101        C268   1.480       .  S
C103        N104   1.363       .  A
C103        N108   1.366   1_554  A
C103        C233   1.486       .  S
N104        C105   1.357       .  A
C105        N106   1.352   1_554  A
C105        C220   1.481       .  S
N106        C107   1.354       .  A
C107        N108   1.361       .  A
C107        C196   1.481       .  S
O109       Cr127   2.013       .  S
O109        C117   1.267       .  A
O110       Cr127   1.976       .  S
O110        C111   1.262       .  A
C111        C185   1.481       .  S
C111        O112   1.267       .  A
O112       Cr128   2.007       .  S
O113       Cr128   1.981       .  S
O113        C114   1.259       .  A
C114        C209   1.479       .  S
C114        O115   1.265       .  A
O115       Cr129   2.002       .  S
O116       Cr129   1.974       .  S
O116        C117   1.260       .  A
C117        C388   1.477       .  S
O118       Cr127   1.979       .  S
O118        C126   1.260       .  A
O119       Cr127   2.002       .  S
O119        C120   1.265       .  A
C120        C137   1.477       .  S
C120        O121   1.260       .  A
O121       Cr128   1.974       .  S
O122       Cr128   2.013       .  S
O122        C123   1.269       .  A
C123        C172   1.479       .  S
C123        O124   1.261       .  A
O124       Cr129   1.972       .  S
O125       Cr129   2.011       .  S
O125        C126   1.266       .  A
C126        C353   1.482       .  S
Cr127       O130   1.767       .  S
Cr128       O130   1.767       .  S
Cr129       O130   1.765       .  S
C131        N132   1.358       .  A
C131        N136   1.355   1_554  A
C131        C401   1.467       .  S
N132        C133   1.359       .  A
C133        N134   1.360       .  A
C133        C161   1.481       .  S
N134        C135   1.358   1_554  A
C135        N136   1.355       .  A
C135        C148   1.479       .  S
C137        C138   1.405       .  A
C137        C142   1.405       .  A
C138        C139   1.395       .  A
C138        H151   1.083       .  S
C139        C140   1.402       .  A
C139        H152   1.083       .  S
C140        C141   1.408       .  A
C140        C143   1.482       .  S
C141        C142   1.397       .  A
C141        H153   1.081       .  S
C142        H154   1.083       .  S
C143        C144   1.345       .  D
C143        H155   1.085       .  S
C144        C145   1.481       .  S
C144        H156   1.085       .  S
C145        C146   1.401       .  A
C145        C150   1.407       .  A
C146        C147   1.395       .  A
C146        H157   1.084       .  S
C147        C148   1.406       .  A
C147        H158   1.083       .  S
C148        C149   1.405       .  A
C149        C150   1.396       .  A
C149        H159   1.083       .  S
C150        H160   1.081       .  S
C161        C162   1.407       .  A
C161        C166   1.405       .  A
C162        C163   1.399       .  A
C162        H175   1.083       .  S
C163        C164   1.403       .  A
C163        H176   1.083       .  S
C164        C165   1.407       .  A
C164        C167   1.485       .  S
C165        C166   1.395       .  A
C165        H177   1.081       .  S
C166        H178   1.083       .  S
C167        C168   1.347       .  D
C167        H179   1.084       .  S
C168        C169   1.486       .  S
C168        H180   1.085       .  S
C169        C170   1.404       .  A
C169        C174   1.409       .  A
C170        C171   1.397       .  A
C170        H181   1.083       .  S
C171        C172   1.405       .  A
C171        H182   1.083       .  S
C172        C173   1.405       .  A
C173        C174   1.397       .  A
C173        H183   1.083       .  S
C174        H184   1.081       .  S
C185        C186   1.405       .  A
C185        C190   1.407       .  A
C186        C187   1.397       .  A
C186        H199   1.083       .  S
C187        C188   1.403       .  A
C187        H200   1.083       .  S
C188        C189   1.406       .  A
C188        C191   1.483       .  S
C189        C190   1.398       .  A
C189        H201   1.082       .  S
C190        H202   1.083       .  S
C191        C192   1.348       .  D
C191        H203   1.087       .  S
C192        C193   1.485       .  S
C192        H204   1.085       .  S
C193        C194   1.406       .  A
C193        C198   1.404       .  A
C194        C195   1.405       .  A
C194        H205   1.083       .  S
C195        C196   1.405       .  A
C195        H206   1.083       .  S
C196        C197   1.406       .  A
C197        C198   1.391       .  A
C197        H207   1.083       .  S
C198        H208   1.082       .  S
C209        C210   1.407       .  A
C209        C214   1.404       .  A
C210        C211   1.402       .  A
C210        H223   1.083       .  S
C211        C212   1.404       .  A
C211        H224   1.083       .  S
C212        C213   1.406       .  A
C212        C215   1.485       .  S
C213        C214   1.392       .  A
C213        H225   1.082       .  S
C214        H226   1.083       .  S
C215        C216   1.347       .  D
C215        H227   1.084       .  S
C216        C217   1.484       .  S
C216        H228   1.086       .  S
C217        C218   1.402       .  A
C217        C222   1.409       .  A
C218        C219   1.391       .  A
C218        H229   1.084       .  S
C219        C220   1.405       .  A
C219        H230   1.083       .  S
C220        C221   1.406       .  A
C221        C222   1.403       .  A
C221        H231   1.083       .  S
C222        H232   1.081       .  S
C233        C234   1.407       .  A
C233        C238   1.406   1_554  A
C234        C235   1.396       .  A
C234        H247   1.083       .  S
C235        C236   1.402       .  A
C235        H248   1.084       .  S
C236        C237   1.410   1_554  A
C236        C239   1.489       .  S
C237        C238   1.401       .  A
C237        H249   1.081       .  S
C238        H250   1.083       .  S
C239        C240   1.347   1_554  D
C239        H251   1.083       .  S
C240        C241   1.491   1_556  S
C240        H252   1.085       .  S
C241        C242   1.403   1_554  A
C241        C246   1.411       .  A
C242        C243   1.395       .  A
C242        H253   1.084       .  S
C243        C244   1.405   1_556  A
C243        H254   1.083       .  S
C244        C245   1.406       .  A
C245        C246   1.402       .  A
C245        H255   1.083       .  S
C246        H256   1.080       .  S
C257        C258   1.405       .  A
C257        C262   1.405       .  A
C258        C259   1.393       .  A
C258        H271   1.083       .  S
C259        C260   1.401       .  A
C259        H272   1.084       .  S
C260        C261   1.409       .  A
C260        C263   1.482       .  S
C261        C262   1.399       .  A
C261        H273   1.081       .  S
C262        H274   1.083       .  S
C263        C264   1.345       .  D
C263        H275   1.086       .  S
C264        C265   1.482       .  S
C264        H276   1.084       .  S
C265        C266   1.401       .  A
C265        C270   1.408       .  A
C266        C267   1.397       .  A
C266        H277   1.083       .  S
C267        C268   1.407       .  A
C267        H278   1.083       .  S
C268        C269   1.405       .  A
C269        C270   1.395       .  A
C269        H279   1.083       .  S
C270        H280   1.082       .  S
C281        C282   1.406       .  A
C281        C286   1.405       .  A
C282        C283   1.397       .  A
C282        H295   1.083       .  S
C283        C284   1.403       .  A
C283        H296   1.084       .  S
C284        C285   1.407       .  A
C284        C287   1.484       .  S
C285        C286   1.397       .  A
C285        H297   1.081       .  S
C286        H298   1.083       .  S
C287        C288   1.347       .  D
C287        H299   1.086       .  S
C288        C289   1.484       .  S
C288        H300   1.085       .  S
C289        C290   1.404       .  A
C289        C294   1.405       .  A
C290        C291   1.402       .  A
C290        H301   1.083       .  S
C291        C292   1.406       .  A
C291        H302   1.083       .  S
C292        C293   1.407       .  A
C293        C294   1.393       .  A
C293        H303   1.083       .  S
C294        H304   1.082       .  S
C305        C306   1.406       .  A
C305        C310   1.406       .  A
C306        C307   1.397       .  A
C306        H319   1.083       .  S
C307        C308   1.402       .  A
C307        H320   1.083       .  S
C308        C309   1.407       .  A
C308        C311   1.484       .  S
C309        C310   1.399       .  A
C309        H321   1.082       .  S
C310        H322   1.083       .  S
C311        C312   1.346       .  D
C311        H323   1.086       .  S
C312        C313   1.482       .  S
C312        H324   1.086       .  S
C313        C314   1.401       .  A
C313        C318   1.408       .  A
C314        C315   1.395       .  A
C314        H325   1.083       .  S
C315        C316   1.405       .  A
C315        H326   1.083       .  S
C316        C317   1.405       .  A
C317        C318   1.401       .  A
C317        H327   1.083       .  S
C318        H328   1.082       .  S
C329        C330   1.404       .  A
C329        C334   1.403       .  A
C330        C331   1.402       .  A
C330        H343   1.083       .  S
C331        C332   1.405       .  A
C331        H344   1.083       .  S
C332        C333   1.406       .  A
C332        C335   1.483       .  S
C333        C334   1.394       .  A
C333        H345   1.082       .  S
C334        H346   1.084       .  S
C335        C336   1.346       .  D
C335        H347   1.086       .  S
C336        C337   1.481       .  S
C336        H348   1.087       .  S
C337        C338   1.403       .  A
C337        C342   1.406       .  A
C338        C339   1.399       .  A
C338        H349   1.083       .  S
C339        C340   1.404       .  A
C339        H350   1.083       .  S
C340        C341   1.405       .  A
C341        C342   1.398       .  A
C341        H351   1.083       .  S
C342        H352   1.082       .  S
C353        C354   1.405       .  A
C353        C358   1.406       .  A
C354        C355   1.398       .  A
C354        H367   1.083       .  S
C355        C356   1.404       .  A
C355        H368   1.083       .  S
C356        C357   1.409       .  A
C356        C359   1.490   1_565  S
C357        C358   1.400       .  A
C357        H369   1.081       .  S
C358        H370   1.083       .  S
C359        C360   1.349       .  D
C359        H371   1.084       .  S
C360        C361   1.491       .  S
C360        H372   1.084       .  S
C361        C362   1.404       .  A
C361        C366   1.410       .  A
C362        C363   1.397       .  A
C362        H373   1.083       .  S
C363        C364   1.406       .  A
C363        H374   1.083       .  S
C364        C365   1.407       .  A
C365        C366   1.401       .  A
C365        H375   1.083       .  S
C366        H376   1.080       .  S
C377        C378   1.405       .  A
C377        C382   1.404       .  A
C378        C379   1.396       .  A
C378        H391   1.083       .  S
C379        C380   1.400       .  A
C379        H392   1.083       .  S
C380        C381   1.405       .  A
C380        C383   1.476       .  S
C381        C382   1.400       .  A
C381        H393   1.083       .  S
C382        H394   1.083       .  S
C383        C384   1.342       .  D
C383        H395   1.087       .  S
C384        C385   1.479       .  S
C384        H396   1.087       .  S
C385        C386   1.402       .  A
C385        C390   1.405       .  A
C386        C387   1.398       .  A
C386        H397   1.083       .  S
C387        C388   1.405       .  A
C387        H398   1.083       .  S
C388        C389   1.405       .  A
C389        C390   1.398       .  A
C389        H399   1.083       .  S
C390        H400   1.083       .  S
C401        C402   1.403   1_554  A
C401        C406   1.402       .  A
C402        C403   1.394       .  A
C402        H415   1.083       .  S
C403        C404   1.400       .  A
C403        H416   1.083       .  S
C404        C405   1.405   1_556  A
C404        C407   1.472       .  S
C405        C406   1.396       .  A
C405        H417   1.083       .  S
C406        H418   1.083       .  S
C407        C408   1.341       .  D
C407        H419   1.087       .  S
C408        C409   1.473       .  S
C408        H420   1.087       .  S
C409        C410   1.401       .  A
C409        C414   1.404   1_556  A
C410        C411   1.397       .  A
C410        H421   1.083       .  S
C411        C412   1.404       .  A
C411        H422   1.083       .  S
C412        C413   1.403   1_556  A
C413        C414   1.393       .  A
C413        H423   1.083       .  S
C414        H424   1.083       .  S
C425        C426   1.403       .  A
C425        C430   1.403       .  A
C426        C427   1.398       .  A
C426        H439   1.083       .  S
C427        C428   1.404       .  A
C427        H440   1.083       .  S
C428        C429   1.407       .  A
C428        C431   1.482       .  S
C429        C430   1.393       .  A
C429        H441   1.081       .  S
C430        H442   1.083       .  S
C431        C432   1.347       .  D
C431        H443   1.084       .  S
C432        C433   1.482       .  S
C432        H444   1.085       .  S
C433        C434   1.402       .  A
C433        C438   1.407   1_655  A
C434        C435   1.395       .  A
C434        H445   1.084       .  S
C435        C436   1.406   1_655  A
C435        H446   1.083       .  S
C436        C437   1.405       .  A
C437        C438   1.397       .  A
C437        H447   1.083       .  S
C438        H448   1.081       .  S
C449        C450   1.405       .  A
C449        C454   1.407   1_455  A
C450        C451   1.399       .  A
C450        H463   1.083       .  S
C451        C452   1.408   1_455  A
C451        H464   1.082       .  S
C452        C453   1.401       .  A
C452        C455   1.484       .  S
C453        C454   1.396       .  A
C453        H465   1.084       .  S
C454        H466   1.083       .  S
C455        C456   1.347       .  D
C455        H467   1.084       .  S
C456        C457   1.488       .  S
C456        H468   1.086       .  S
C457        C458   1.403       .  A
C457        C462   1.410       .  A
C458        C459   1.394       .  A
C458        H469   1.084       .  S
C459        C460   1.405       .  A
C459        H470   1.083       .  S
C460        C461   1.405       .  A
C461        C462   1.401       .  A
C461        H471   1.083       .  S
C462        H472   1.080       .  S
C473        C474   1.405       .  A
C473        C478   1.407       .  A
C474        C475   1.397       .  A
C474        H487   1.083       .  S
C475        C476   1.403       .  A
C475        H488   1.084       .  S
C476        C477   1.408       .  A
C476        C479   1.486       .  S
C477        C478   1.402       .  A
C477        H489   1.082       .  S
C478        H490   1.083       .  S
C479        C480   1.347       .  D
C479        H491   1.086       .  S
C480        C481   1.487       .  S
C480        H492   1.086       .  S
C481        C482   1.404   1_565  A
C481        C486   1.406       .  A
C482        C483   1.402       .  A
C482        H493   1.083       .  S
C483        C484   1.407       .  A
C483        H494   1.083       .  S
C484        C485   1.405   1_545  A
C485        C486   1.396       .  A
C485        H495   1.083       .  S
C486        H496   1.082       .  S
C497        C498   1.404       .  A
C497        C502   1.405       .  A
C498        C499   1.399       .  A
C498        H511   1.083       .  S
C499        C500   1.403   1_545  A
C499        H512   1.083       .  S
C500        C501   1.406       .  A
C500        C503   1.481       .  S
C501        C502   1.398   1_565  A
C501        H513   1.083       .  S
C502        H514   1.083       .  S
C503        C504   1.345       .  D
C503        H515   1.087       .  S
C504        C505   1.482       .  S
C504        H516   1.087       .  S
C505        C506   1.403       .  A
C505        C510   1.406       .  A
C506        C507   1.400       .  A
C506        H517   1.083       .  S
C507        C508   1.405       .  A
C507        H518   1.083       .  S
C508        C509   1.403       .  A
C509        C510   1.397       .  A
C509        H519   1.083       .  S
C510        H520   1.083       .  S
C521        C522   1.406       .  A
C521        C526   1.407   1_556  A
C522        C523   1.399       .  A
C522        H535   1.083       .  S
C523        C524   1.405       .  A
C523        H536   1.083       .  S
C524        C525   1.410   1_556  A
C524        C527   1.496       .  S
C525        C526   1.402       .  A
C525        H537   1.080       .  S
C526        H538   1.083       .  S
C527        C528   1.351   1_556  D
C527        H539   1.084       .  S
C528        C529   1.495   1_554  S
C528        H540   1.084       .  S
C529        C530   1.405   1_556  A
C529        C534   1.410       .  A
C530        C531   1.400       .  A
C530        H541   1.083       .  S
C531        C532   1.406   1_554  A
C531        H542   1.083       .  S
C532        C533   1.407       .  A
C533        C534   1.403       .  A
C533        H543   1.083       .  S
C534        H544   1.081       .  S
C545        C546   1.407       .  A
C545        C550   1.405       .  A
C546        C547   1.397       .  A
C546        H559   1.083       .  S
C547        C548   1.401       .  A
C547        H560   1.083       .  S
C548        C549   1.409       .  A
C548        C551   1.486       .  S
C549        C550   1.400       .  A
C549        H561   1.082       .  S
C550        H562   1.083       .  S
C551        C552   1.346       .  D
C551        H563   1.083       .  S
C552        C553   1.490       .  S
C552        H564   1.086       .  S
C553        C554   1.402       .  A
C553        C558   1.411       .  A
C554        C555   1.393       .  A
C554        H565   1.084       .  S
C555        C556   1.406       .  A
C555        H566   1.083       .  S
C556        C557   1.405       .  A
C557        C558   1.402       .  A
C557        H567   1.083       .  S
C558        H568   1.080       .  S
C569        C570   1.405       .  A
C569        C574   1.405       .  A
C570        C571   1.401       .  A
C570        H583   1.084       .  S
C571        C572   1.405       .  A
C571        H584   1.082       .  S
C572        C573   1.407       .  A
C572        C575   1.488       .  S
C573        C574   1.395       .  A
C573        H585   1.082       .  S
C574        H586   1.083       .  S
C575        C576   1.349       .  D
C575        H587   1.083       .  S
C576        C577   1.489       .  S
C576        H588   1.085       .  S
C577        C578   1.404       .  A
C577        C582   1.409       .  A
C578        C579   1.396       .  A
C578        H589   1.083       .  S
C579        C580   1.405       .  A
C579        H590   1.083       .  S
C580        C581   1.407       .  A
C581        C582   1.400       .  A
C581        H591   1.083       .  S
C582        H592   1.080       .  S
C593        C594   1.406       .  A
C593        C598   1.406       .  A
C594        C595   1.402       .  A
C594        H607   1.083       .  S
C595        C596   1.404       .  A
C595        H608   1.083       .  S
C596        C597   1.406       .  A
C596        C599   1.487       .  S
C597        C598   1.397       .  A
C597        H609   1.082       .  S
C598        H610   1.083       .  S
C599        C600   1.347       .  D
C599        H611   1.086       .  S
C600        C601   1.486       .  S
C600        H612   1.086       .  S
C601        C602   1.402       .  A
C601        C606   1.408       .  A
C602        C603   1.398       .  A
C602        H613   1.083       .  S
C603        C604   1.407       .  A
C603        H614   1.083       .  S
C604        C605   1.406       .  A
C605        C606   1.401       .  A
C605        H615   1.083       .  S
C606        H616   1.082       .  S
C617        C618   1.405       .  A
C617        C622   1.406       .  A
C618        C619   1.394       .  A
C618        H631   1.083       .  S
C619        C620   1.403       .  A
C619        H632   1.084       .  S
C620        C621   1.411       .  A
C620        C623   1.491       .  S
C621        C622   1.404       .  A
C621        H633   1.080       .  S
C622        H634   1.083       .  S
C623        C624   1.349       .  D
C623        H635   1.084       .  S
C624        C625   1.493       .  S
C624        H636   1.084       .  S
C625        C626   1.405       .  A
C625        C630   1.408       .  A
C626        C627   1.402       .  A
C626        H637   1.083       .  S
C627        C628   1.406       .  A
C627        H638   1.083       .  S
C628        C629   1.406       .  A
C629        C630   1.397       .  A
C629        H639   1.083       .  S
C630        H640   1.081       .  S
C641        C642   1.407       .  A
C641        C646   1.405       .  A
C642        C643   1.398       .  A
C642        H655   1.083       .  S
C643        C644   1.402       .  A
C643        H656   1.083       .  S
C644        C645   1.408       .  A
C644        C647   1.484       .  S
C645        C646   1.398       .  A
C645        H657   1.082       .  S
C646        H658   1.083       .  S
C647        C648   1.346       .  D
C647        H659   1.084       .  S
C648        C649   1.487       .  S
C648        H660   1.086       .  S
C649        C650   1.402       .  A
C649        C654   1.409       .  A
C650        C651   1.394       .  A
C650        H661   1.084       .  S
C651        C652   1.406       .  A
C651        H662   1.083       .  S
C652        C653   1.406       .  A
C653        C654   1.401       .  A
C653        H663   1.083       .  S
C654        H664   1.081       .  S
C665        C666   1.406       .  A
C665        C670   1.405       .  A
C666        C667   1.399       .  A
C666        H679   1.083       .  S
C667        C668   1.403       .  A
C667        H680   1.083       .  S
C668        C669   1.407       .  A
C668        C671   1.484       .  S
C669        C670   1.395       .  A
C669        H681   1.081       .  S
C670        H682   1.083       .  S
C671        C672   1.347       .  D
C671        H683   1.083       .  S
C672        C673   1.487       .  S
C672        H684   1.086       .  S
C673        C674   1.405       .  A
C673        C678   1.408       .  A
C674        C675   1.398       .  A
C674        H685   1.083       .  S
C675        C676   1.404       .  A
C675        H686   1.083       .  S
C676        C677   1.404       .  A
C677        C678   1.395       .  A
C677        H687   1.083       .  S
C678        H688   1.080       .  S
C689        C690   1.405   1_556  A
C689        C694   1.405       .  A
C690        C691   1.399       .  A
C690        H703   1.083       .  S
C691        C692   1.401       .  A
C691        H704   1.083       .  S
C692        C693   1.403   1_554  A
C692        C695   1.475       .  S
C693        C694   1.395       .  A
C693        H705   1.083       .  S
C694        H706   1.083       .  S
C695        C696   1.342       .  D
C695        H707   1.087       .  S
C696        C697   1.475       .  S
C696        H708   1.087   1_554  S
C697        C698   1.401       .  A
C697        C702   1.404   1_554  A
C698        C699   1.397       .  A
C698        H709   1.083       .  S
C699        C700   1.404       .  A
C699        H710   1.083       .  S
C700        C701   1.405   1_554  A
C701        C702   1.397       .  A
C701        H711   1.083       .  S
C702        H712   1.083       .  S
