geometry optimzed in LAMMPS
_audit_creation_date              2020-11-30 
_audit_creation_method            'lammps2cif' 
_symmetry_space_group_name_H-M    'P1' 
_symmetry_Int_Tables_number       1 
_symmetry_cell_setting            triclinic 
loop_ 
_symmetry_equiv_pos_as_xyz 
  x,y,z 
_cell_length_a                    42.07885862 
_cell_length_b                    42.22534413347199 
_cell_length_c                    45.669962196633875 
_cell_angle_alpha                 89.96361569791814 
_cell_angle_beta                  90.0218957632637 
_cell_angle_gamma                 120.25907035996197 
loop_ 
_atom_site_label 
_atom_site_type_symbol 
_atom_site_fract_x 
_atom_site_fract_y 
_atom_site_fract_z 
_atom_site_charge 
C1          C  0.46062048  0.07023162  0.31766712     0.43500
N2          N  0.48981114  0.06088538  0.28337343     0.02400
C3          C  0.41866402  0.90635408  0.19633432    -0.05500
H4          H  0.42093682  0.88155049  0.31214238     0.07900
C5          C  0.56308938  0.96139897  0.30526557    -0.05800
Co6        Co  0.43908811  0.99144262  0.25232746     0.74200
N7          N  0.43422320  0.92780825  0.28421881    -0.25000
Co8        Co  0.47144057  0.93038489  0.25204407     0.74100
C9          C  0.53830124  0.92705695  0.31991009     0.43600
N10         N  0.57642857  0.04430835  0.28358791     0.02000
N11         N  0.50944665  0.93562773  0.28455164     0.02100
N12         N  0.39849542  0.94670238  0.20036473    -0.45900
H13         H  0.40724339  0.01644115  0.30798113     0.07900
N14         N  0.42295627  0.95183728  0.28406126     0.02400
N15         N  0.51008560  0.93517698  0.22009790     0.02100
C16         C  0.54060579  0.92521704  0.18696359     0.43700
N17         N  0.56518605  0.06837166  0.28392693    -0.24500
C18         C  0.43514154  0.03345126  0.19927401    -0.05400
N19         N  0.49343894  0.08513841  0.30354446    -0.45600
N20         N  0.50701787  0.91109122  0.19990790    -0.45800
C21         C  0.45973962  0.06701693  0.18388475     0.43500
N22         N  0.42229229  0.95147703  0.22107493     0.02400
N23         N  0.56487490  0.06725592  0.21916319    -0.24500
N24         N  0.45644890  0.03185272  0.28335758    -0.25000
N25         N  0.57671475  0.04368629  0.22052009     0.02000
H26         H  0.57753342  0.11189555  0.18919166     0.07900
H27         H  0.59354026  0.97936134  0.19754501     0.07900
N28         N  0.43453139  0.92822589  0.21969783    -0.25000
N29         N  0.54295362  0.96434865  0.28403968    -0.24700
N30         N  0.48939341  0.05954277  0.21902319     0.02400
C31         C  0.39383768  0.91694470  0.32024527     0.43800
C32         C  0.58219845  0.09153384  0.30648386    -0.05900
N33         N  0.54363732  0.96383563  0.22101022    -0.24700
H34         H  0.59206081  0.98030714  0.30863896     0.07900
N35         N  0.39891894  0.94622996  0.30485263    -0.45900
H36         H  0.57924039  0.11476006  0.31217133     0.07900
C37         C  0.60499627  0.07660138  0.18346860     0.43600
C38         C  0.43617785  0.03521585  0.30417513    -0.05400
Co39       Co  0.52795955  0.06541203  0.25131981     0.73800
N40         N  0.60047060  0.04967392  0.30427175    -0.45600
C41         C  0.39465525  0.91890415  0.18378827     0.43900
N42         N  0.49311958  0.08203534  0.19720849    -0.45600
Co43       Co  0.56015020  0.00421942  0.25229447     0.73900
C44         C  0.56463337  0.96021984  0.20093172    -0.05900
C45         C  0.41731486  0.90441182  0.30653755    -0.05500
N46         N  0.45571055  0.03110004  0.22041909    -0.25000
N47         N  0.50547877  0.91229116  0.30568931    -0.45800
H48         H  0.42277501  0.88416606  0.18943850     0.07900
C49         C  0.58114390  0.08934937  0.19594237    -0.05900
Cl50       Cl  0.49965608  0.99786217  0.25196737    -0.48900
C51         C  0.60577275  0.07879815  0.31987856     0.43600
H52         H  0.40634064  0.01409738  0.19552762     0.07900
N53         N  0.60070009  0.04850552  0.19996519    -0.45600
C54         C  0.07989816  0.61462549  0.31838463     0.43500
N55         N  0.07217967  0.57555984  0.28497143     0.02400
C56         C  0.91741890  0.49250939  0.19591312    -0.05500
H57         H  0.89216905  0.46801366  0.30960164     0.07900
C58         C  0.97019721  0.40101401  0.30365922    -0.05800
Co59       Co  0.00496307  0.55749453  0.25028901     0.74200
N60         N  0.93957546  0.49966254  0.28218338    -0.25000
Co61       Co  0.94249219  0.46431336  0.25082154     0.74100
C62         C  0.93512242  0.39053258  0.31702326     0.43600
N63         N  0.05457257  0.47170694  0.28527342     0.02000
N64         N  0.94615523  0.43074919  0.28360199     0.02100
N65         N  0.96095809  0.55253168  0.19686938    -0.45900
H66         H  0.02734348  0.61471639  0.30518706     0.07900
N67         N  0.96375927  0.53507816  0.28112984     0.02400
N68         N  0.94822445  0.43097023  0.21925221     0.02100
C69         C  0.93975676  0.39230910  0.18541558     0.43700
N70         N  0.07876655  0.50709947  0.28657491    -0.24500
C71         C  0.05024255  0.60261566  0.19845115    -0.05400
N72         N  0.09463717  0.59535184  0.30654665    -0.45600
N73         N  0.92530055  0.41144757  0.19784919    -0.45800
C74         C  0.08528269  0.61249323  0.18539057     0.43500
N75         N  0.96611557  0.53392997  0.21774744     0.02400
N76         N  0.08128260  0.50735057  0.22208031    -0.24500
N77         N  0.04397170  0.58088116  0.28253837    -0.25000
N78         N  0.05669384  0.47202644  0.22212940     0.02000
H79         H  0.12770666  0.54024103  0.19392241     0.07900
H80         H  0.99181233  0.39093502  0.19770467     0.07900
N81         N  0.94117256  0.49871380  0.21791916    -0.25000
N82         N  0.97456942  0.42558364  0.28339798    -0.24700
N83         N  0.07523875  0.57535891  0.22084599     0.02400
C84         C  0.92829290  0.53102737  0.31640591     0.43800
C85         C  0.10073656  0.51271474  0.30985137    -0.05900
N86         N  0.97643634  0.42555268  0.22097529    -0.24700
H87         H  0.98888311  0.39098216  0.30759875     0.07900
N88         N  0.95799058  0.55447667  0.30084891    -0.45900
H89         H  0.12389511  0.53880806  0.31633268     0.07900
C90         C  0.09128116  0.47770642  0.18587694     0.43600
C91         C  0.04646121  0.60492103  0.30256695    -0.05400
Co92       Co  0.07826883  0.54207596  0.25377963     0.73800
N93         N  0.05867111  0.45241192  0.30603619    -0.45600
C94         C  0.93102424  0.52845947  0.18184508     0.43900
N95         N  0.09988831  0.59513196  0.20045943    -0.45600
Co96       Co  0.01575276  0.44869227  0.25293580     0.73900
C97         C  0.97330911  0.40141912  0.20072197    -0.05900
C98         C  0.91576265  0.49420840  0.30399160    -0.05500
N99         N  0.04635784  0.57973565  0.21997370    -0.25000
N100        N  0.92151574  0.41004265  0.30369841    -0.45800
H101        H  0.89325085  0.46646215  0.19089271     0.07900
C102        C  0.10465699  0.51375861  0.19975191    -0.05900
Cl103      Cl  0.01033669  0.50313901  0.25204115    -0.48900
C104        C  0.08706687  0.47597368  0.32258427     0.43600
H105        H  0.03158701  0.61251927  0.19365467     0.07900
N106        N  0.06173260  0.45351526  0.20117685    -0.45600
C107        C  0.39020215  0.46449532  0.31844758     0.43500
N108        N  0.42939053  0.49456228  0.28435734     0.02400
C109        C  0.51048243  0.42040842  0.19716745    -0.05500
H110        H  0.53394080  0.41819812  0.31138047     0.07900
C111        C  0.60175329  0.56318660  0.30693236    -0.05800
Co112      Co  0.44660634  0.44375491  0.25187501     0.74200
N113        N  0.50343467  0.43560131  0.28413342    -0.25000
Co114      Co  0.53949441  0.47311573  0.25271497     0.74100
C115        C  0.61073164  0.53791948  0.32105570     0.43600
N116        N  0.53393878  0.57927687  0.28560051     0.02000
N117        N  0.57273390  0.51005169  0.28575439     0.02100
N118        N  0.45033277  0.40327273  0.19926774    -0.45900
H119        H  0.38976075  0.41135582  0.30705753     0.07900
N120        N  0.46829334  0.42577919  0.28364818     0.02400
N121        N  0.57404242  0.51182563  0.22127216     0.02100
C122        C  0.61249881  0.54108874  0.18676911     0.43700
N123        N  0.49874265  0.56923013  0.28522934    -0.24500
C124        C  0.40279114  0.44291729  0.19888975    -0.05400
N125        N  0.40971144  0.49807502  0.30558620    -0.45600
N126        N  0.59272931  0.50767701  0.19964013    -0.45800
C127        C  0.39469806  0.46832034  0.18416012     0.43500
N128        N  0.46940225  0.42671016  0.22023645     0.02400
N129        N  0.50066078  0.57052491  0.22095933    -0.24500
N130        N  0.42371074  0.46090041  0.28309059    -0.25000
N131        N  0.53601690  0.58133899  0.22244775     0.02000
H132        H  0.46998439  0.58539685  0.19155223     0.07900
H133        H  0.61482906  0.59504919  0.19843958     0.07900
N134        N  0.50470009  0.43731380  0.21982670    -0.25000
N135        N  0.57836823  0.54372065  0.28566267    -0.24700
N136        N  0.43135249  0.49613319  0.21988855     0.02400
C137        C  0.47162742  0.39451542  0.31896725     0.43800
C138        C  0.49271420  0.58716446  0.30688307    -0.05900
N139        N  0.58044375  0.54574667  0.22280070    -0.24700
H140        H  0.61278473  0.59214721  0.31045189     0.07900
N141        N  0.44848886  0.40138514  0.30384005    -0.45900
H142        H  0.46667889  0.58527033  0.31177179     0.07900
C143        C  0.53303589  0.61141926  0.18583501     0.43600
C144        C  0.39968409  0.44018720  0.30357239    -0.07200
Co145      Co  0.46426139  0.53321781  0.25261140     0.73800
N146        N  0.55275270  0.60326965  0.30627044    -0.45600
C147        C  0.47396060  0.39777346  0.18342796     0.43900
N148        N  0.41281523  0.50088195  0.19846951    -0.45600
Co149      Co  0.55737036  0.56275576  0.25418701     0.73900
C150        C  0.60437805  0.56615063  0.20207990    -0.05900
C151        C  0.50829904  0.41682420  0.30581802    -0.05500
N152        N  0.42555804  0.46241676  0.22039043    -0.25000
N153        N  0.59214825  0.50544706  0.30654933    -0.45800
H154        H  0.53667836  0.42302067  0.19173157     0.07900
C155        C  0.49587018  0.58801535  0.19813605    -0.05900
Cl156      Cl  0.50194747  0.50322922  0.25285625    -0.48900
C157        C  0.52884050  0.60957274  0.32083337     0.43600
H158        H  0.39192944  0.41394977  0.19519074     0.07900
N159        N  0.55604254  0.60559242  0.20223272    -0.45600
C160        C  0.81483453  0.47333706  0.00751261     0.43500
N161        N  0.79014300  0.50518536  0.01832294     0.02400
C162        C  0.75628509  0.61273265  0.41857758    -0.05500
H163        H  0.89118607  0.63849589  0.41613993     0.07900
C164        C  0.90070502  0.67229729  0.03474785    -0.05800
Co165      Co  0.77297672  0.53549523  0.46016858     0.74200
N166        N  0.84257960  0.60100478  0.44092775    -0.25000
Co167      Co  0.82102277  0.62981600  0.46437414     0.74100
C168        C  0.92350791  0.68293808  0.50762843     0.43600
N169        N  0.83352347  0.59330426  0.06885450     0.02000
N170        N  0.86749987  0.65452158  0.49193618     0.02100
N171        N  0.72916725  0.55099379  0.41829274    -0.45900
H172        H  0.81220044  0.48345190  0.45231657     0.07900
N173        N  0.82349103  0.56489863  0.44145090     0.02400
N174        N  0.79806147  0.65633524  0.48861654     0.02100
C175        C  0.77230931  0.68748449  0.00500166     0.43700
N176        N  0.81383290  0.55736665  0.06609579    -0.24500
C177        C  0.68851984  0.48865488  0.46656138    -0.05400
N178        N  0.80300724  0.48532713  0.02994019    -0.45600
N179        N  0.78415588  0.67623206  0.47812090    -0.45800
C180        C  0.66520210  0.47430484  0.99995561     0.43500
N181        N  0.75638236  0.56587996  0.43714000     0.02400
N182        N  0.74640252  0.55795245  0.06286336    -0.24500
N183        N  0.79040454  0.50547192  0.48367826    -0.25000
N184        N  0.76344687  0.59381746  0.06590848     0.02000
H185        H  0.69761717  0.51304032  0.08043662     0.07900
H186        H  0.77634777  0.67599619  0.05406013     0.07900
N187        N  0.77337975  0.60200268  0.43792253    -0.25000
N188        N  0.86653238  0.65417173  0.02362850    -0.24700
N189        N  0.72081491  0.50524757  0.01526787     0.02400
C190        C  0.86717740  0.57556164  0.41165074     0.43800
C191        C  0.82676169  0.54147774  0.08373651    -0.05900
N192        N  0.79715063  0.65485905  0.02136614    -0.24700
H193        H  0.90724437  0.67525314  0.05781972     0.07900
N194        N  0.83686314  0.54927086  0.42461513    -0.45900
H195        H  0.81500605  0.51225360  0.08672280     0.07900
C196        C  0.71339557  0.57238117  0.09109322     0.43600
C197        C  0.80655090  0.48683067  0.47480768    -0.05400
Co198      Co  0.76760288  0.53108166  0.04082777     0.73800
N199        N  0.86031689  0.60324887  0.08857085    -0.45600
C200        C  0.72700860  0.57826845  0.40552429     0.43900
N201        N  0.68638901  0.48542837  0.02426016    -0.45600
Co202      Co  0.81581969  0.62526498  0.04560420     0.73900
C203        C  0.78116565  0.67336028  0.03121381    -0.05900
C204        C  0.87127244  0.61071394  0.42236339    -0.05500
N205        N  0.72177629  0.50658952  0.47896322    -0.25000
N206        N  0.90232452  0.67318402  0.48327047    -0.45800
H207        H  0.76448793  0.64077858  0.41320417     0.07900
C208        C  0.71526497  0.54228798  0.07788247    -0.05900
Cl209      Cl  0.79477723  0.58082881  0.00527043    -0.48900
C210        C  0.85736090  0.57146631  0.09852963     0.43600
H211        H  0.68352727  0.48633668  0.44326585     0.07900
N212        N  0.74469287  0.60389070  0.08336380    -0.45600
C213        C  0.66854732  0.19705531  0.00268210     0.43500
N214        N  0.72410584  0.21954419  0.01716745     0.02400
C215        C  0.86840583  0.25360515  0.42194694    -0.05500
H216        H  0.75178449  0.11652729  0.41748846     0.07900
C217        C  0.77571338  0.10404492  0.03254203    -0.05800
Co218      Co  0.77303699  0.23742884  0.46076852     0.74200
N219        N  0.76714052  0.16791746  0.43923478    -0.25000
Co220      Co  0.81613025  0.18613617  0.46419014     0.74100
C221        C  0.76429476  0.08038830  0.50263986     0.43600
N222        N  0.76189041  0.16859556  0.06711487     0.02000
N223        N  0.79174535  0.13713112  0.48902067     0.02100
N224        N  0.83728195  0.28403958  0.42391920    -0.45900
H225        H  0.68431959  0.20448669  0.44610629     0.07900
N226        N  0.75197968  0.18870675  0.43877591     0.02400
N227        N  0.86390591  0.20637504  0.49069580     0.02100
C228        C  0.92251679  0.23201535  0.01027713     0.43700
N229        N  0.74654320  0.18898285  0.06428267    -0.24500
C230        C  0.81172261  0.32096300  0.47484772    -0.05400
N231        N  0.69010920  0.20613256  0.02663269    -0.45600
N232        N  0.89863707  0.22162964  0.48169904    -0.45800
C233        C  0.82259534  0.34335434  0.00932956     0.43500
N234        N  0.82221030  0.25490398  0.44074856     0.02400
N235        N  0.81679644  0.25515347  0.06723413    -0.24500
N236        N  0.72324467  0.21914535  0.48092024    -0.25000
N237        N  0.83457608  0.23704383  0.06963230     0.02000
H238        H  0.82396267  0.30496005  0.08573394     0.07900
H239        H  0.90403758  0.22515590  0.05878494     0.07900
N240        N  0.83936759  0.23604188  0.44032893    -0.25000
N241        N  0.79242962  0.13856869  0.02259246    -0.24700
N242        N  0.79578027  0.28640856  0.02007236     0.02400
C243        C  0.71621196  0.14386704  0.41102795     0.43800
C244        C  0.71467246  0.17376306  0.07839790    -0.05900
N245        N  0.86381313  0.20635517  0.02459727    -0.24700
H246        H  0.77044863  0.09646269  0.05534228     0.07900
N247        N  0.72228722  0.17561549  0.42240682    -0.45900
H248        H  0.69726109  0.18560783  0.08071615     0.07900
C249        C  0.86477363  0.28556034  0.09574345     0.43600
C250        C  0.68989025  0.20631216  0.46925369    -0.05400
Co251      Co  0.77055512  0.23768404  0.04250491     0.73800
N252        N  0.74141790  0.13911071  0.08359302    -0.45600
C253        C  0.86679681  0.28593629  0.41125521     0.43900
N254        N  0.80998661  0.31932917  0.03168540    -0.45600
Co255      Co  0.81366348  0.18698593  0.04668828     0.73900
C256        C  0.89788236  0.22145939  0.03571263    -0.05900
C257        C  0.74641776  0.13855672  0.42189731    -0.05500
N258        N  0.79468944  0.28601262  0.48380104    -0.25000
N259        N  0.77667920  0.10298916  0.47902611    -0.45800
H260        H  0.88727647  0.24431649  0.41617529     0.07900
C261        C  0.83335459  0.28555633  0.08310327    -0.05900
Cl262      Cl  0.79465057  0.21260530  0.00662210    -0.48900
C263        C  0.71071274  0.14052052  0.09072402     0.43600
H264        H  0.81639020  0.32990158  0.45230374     0.07900
N265        N  0.86379091  0.25424492  0.08712074    -0.45600
C266        C  0.34206432  0.80675469  0.99654134     0.43500
N267        N  0.28605938  0.78411317  0.00975857     0.02400
C268        C  0.13531847  0.74532944  0.42709041    -0.05500
H269        H  0.24788889  0.87855341  0.41653575     0.07900
C270        C  0.23108040  0.89659551  0.02899829    -0.05800
Co271      Co  0.23064347  0.76263675  0.46664996     0.74200
N272        N  0.23584107  0.83084604  0.44262238    -0.25000
Co273      Co  0.18779271  0.81394575  0.46806481     0.74100
C274        C  0.24014817  0.92102345  0.50409683     0.43600
N275        N  0.24682030  0.83209830  0.06115780     0.02000
N276        N  0.21251926  0.86376123  0.49173761     0.02100
N277        N  0.16577491  0.71434554  0.43078490    -0.45900
H278        H  0.31971481  0.79662733  0.45176279     0.07900
N279        N  0.25105484  0.81012803  0.44307736     0.02400
N280        N  0.14061182  0.79475685  0.49456094     0.02100
C281        C  0.08590897  0.76697112  0.00680824     0.43700
N282        N  0.26293275  0.81250715  0.05772551    -0.24500
C283        C  0.19382017  0.67997335  0.48226825    -0.05400
N284        N  0.31964302  0.79724683  0.01985048    -0.45600
N285        N  0.10605324  0.77879674  0.48521321    -0.45800
C286        C  0.18914388  0.65917067  0.00010637     0.43500
N287        N  0.18100944  0.74403876  0.44697208     0.02400
N288        N  0.19398226  0.74527517  0.06007472    -0.24500
N289        N  0.28078276  0.78209546  0.48660047    -0.25000
N290        N  0.17594653  0.76298044  0.06367205     0.02000
H291        H  0.19098359  0.69777854  0.07999871     0.07900
H292        H  0.10522141  0.77349529  0.05488511     0.07900
N293        N  0.16418819  0.76318024  0.44554783    -0.25000
N294        N  0.21509949  0.86242296  0.01830591    -0.24700
N295        N  0.21551319  0.71587218  0.01185404     0.02400
C296        C  0.28324662  0.85088627  0.41116432     0.43800
C297        C  0.29442066  0.82775148  0.07239497    -0.05900
N298        N  0.14477825  0.79342013  0.02001948    -0.24700
H299        H  0.23538103  0.90321781  0.05200368     0.07900
N300        N  0.27881554  0.82096292  0.42489488    -0.45900
H301        H  0.31210419  0.81619077  0.07466696     0.07900
C302        C  0.15102886  0.71705432  0.09285683     0.43600
C303        C  0.31410126  0.79471797  0.47493003    -0.05400
Co304      Co  0.23977013  0.76424872  0.03501088     0.73800
N305        N  0.26613233  0.86082005  0.07855637    -0.45600
C306        C  0.13653036  0.71242047  0.41753036     0.43900
N307        N  0.20169091  0.68262308  0.02287933    -0.45600
Co308      Co  0.19513132  0.81327151  0.04139531     0.73900
C309        C  0.11102924  0.77745379  0.03173529    -0.05900
C310        C  0.25462691  0.85796220  0.42291717    -0.05500
N311        N  0.20970999  0.71497707  0.49077939    -0.25000
N312        N  0.22781009  0.89759528  0.48098463    -0.45800
H313        H  0.11689588  0.75485054  0.42046785     0.07900
C314        C  0.18019326  0.71604824  0.07732272    -0.05900
Cl315      Cl  0.21458439  0.78935651  0.00036394    -0.48900
C316        C  0.29707836  0.86003178  0.08574931     0.43600
H317        H  0.18972837  0.67068156  0.45985056     0.07900
N318        N  0.14978610  0.74709886  0.08390240    -0.45600
C319        C  0.57348369  0.85585769  0.41256592     0.43500
N320        N  0.59649322  0.83234841  0.44162831     0.02400
C321        C  0.49193180  0.68560889  0.02565462    -0.05500
H322        H  0.49328283  0.80937270  0.05190961     0.07900
C323        C  0.61635029  0.86135184  0.08353381    -0.05800
Co324      Co  0.53469995  0.76687671  0.47039662     0.74200
N325        N  0.51376646  0.78993829  0.01782445    -0.25000
Co326      Co  0.54135748  0.76815326  0.03918008     0.74100
C327        C  0.58106771  0.85618339  0.09520447     0.43600
N328        N  0.66208424  0.86431956  0.01286843     0.02000
N329        N  0.57047461  0.81554271  0.06249020     0.02100
N330        N  0.48809039  0.68573181  0.48522494    -0.45900
H331        H  0.51473658  0.81539906  0.42764280     0.07900
N332        N  0.51058140  0.78943323  0.49494820     0.02400
N333        N  0.57006193  0.74747488  0.05983817     0.02100
C334        C  0.58040458  0.71370030  0.08875978     0.43700
N335        N  0.65935418  0.86266332  0.48539874    -0.24500
C336        C  0.54281120  0.71647302  0.42857384    -0.05400
N337        N  0.60558623  0.85805228  0.42113715    -0.45600
N338        N  0.55401277  0.71766574  0.07597356    -0.45800
C339        C  0.57202847  0.71682900  0.41188931     0.43500
N340        N  0.50886413  0.71958130  0.49493222     0.02400
N341        N  0.65834486  0.79257156  0.48470688    -0.24500
N342        N  0.56067404  0.81366302  0.44596458    -0.25000
N343        N  0.66265194  0.79453783  0.01165029     0.02000
H344        H  0.67795220  0.77208713  0.45027316     0.07900
H345        H  0.64355877  0.75319406  0.08512683     0.07900
N346        N  0.51204585  0.72011322  0.01610273    -0.25000
N347        N  0.60668138  0.83457014  0.06323191    -0.24700
N348        N  0.59555229  0.76248955  0.44141736     0.02400
C349        C  0.48094811  0.81480089  0.00344724     0.43800
C350        C  0.67697056  0.89691842  0.47469231    -0.05900
N351        N  0.60630891  0.76481750  0.06084168    -0.24700
H352        H  0.64420642  0.88065486  0.09015275     0.07900
N353        N  0.49005469  0.80207589  0.48443330    -0.45900
H354        H  0.67797204  0.90412454  0.45184630     0.07900
C355        C  0.69354220  0.76886208  0.99791465     0.43600
C356        C  0.54416974  0.82681650  0.42926727    -0.05400
Co357      Co  0.62865077  0.81315145  0.46272361     0.73800
N358        N  0.67998168  0.89838277  0.02310953    -0.45600
C359        C  0.47806264  0.66366388  0.99899117     0.43900
N360        N  0.60436163  0.74621229  0.42059483    -0.45600
Co361      Co  0.63579236  0.81530522  0.03763978     0.73900
C362        C  0.61577788  0.74550843  0.07899982    -0.05900
C363        C  0.49574125  0.80558101  0.02887459    -0.05500
N364        N  0.55973406  0.74562524  0.44576579    -0.25000
N365        N  0.55463097  0.82717232  0.08095773    -0.45800
H366        H  0.48730197  0.67767678  0.04827419     0.07900
C367        C  0.67602398  0.77635408  0.47337905    -0.05900
Cl368      Cl  0.58679549  0.79178789  0.00029434    -0.48900
C369        C  0.69158074  0.92071977  0.50030919     0.43600
H370        H  0.51333757  0.69907660  0.42635710     0.07900
N371        N  0.68175013  0.77955086  0.02149308    -0.45600
C372        C  0.19545732  0.52854627  0.99766632     0.43500
N373        N  0.22040643  0.49711005  0.00938814     0.02400
C374        C  0.25456790  0.38986923  0.42488241    -0.05500
H375        H  0.11749268  0.36640616  0.42257746     0.07900
C376        C  0.10931744  0.33068415  0.03211168    -0.05800
Co377      Co  0.23783333  0.46690090  0.46662129     0.74200
N378        N  0.16803404  0.40293450  0.44549318    -0.25000
Co379      Co  0.18718098  0.37214233  0.46839806     0.74100
C380        C  0.08182043  0.31542413  0.50806340     0.43600
N381        N  0.17635565  0.41161960  0.06290082     0.02000
N382        N  0.13870149  0.34616353  0.49403307     0.02100
N383        N  0.28405288  0.45151688  0.42725325    -0.45900
H384        H  0.20257564  0.52301189  0.45785450     0.07900
N385        N  0.18809619  0.43902655  0.44616419     0.02400
N386        N  0.20801880  0.34420943  0.49290201     0.02100
C387        C  0.23691520  0.31413471  0.00439404     0.43700
N388        N  0.19594875  0.44721323  0.05825082    -0.24500
C389        C  0.32208900  0.51318527  0.47724336    -0.05400
N390        N  0.20762387  0.51732806  0.02034709    -0.45600
N391        N  0.22282027  0.32524507  0.48239357    -0.45800
C392        C  0.34450574  0.52749062  0.99242107     0.43500
N393        N  0.25492235  0.43646628  0.44424983     0.02400
N394        N  0.26302378  0.44562676  0.05727669    -0.24500
N395        N  0.22020118  0.49718101  0.48953064    -0.25000
N396        N  0.24502479  0.40993216  0.06173597     0.02000
H397        H  0.31101499  0.49083225  0.07640462     0.07900
H398        H  0.23352437  0.32806277  0.05284693     0.07900
N399        N  0.23664651  0.40033722  0.44365959    -0.25000
N400        N  0.14291209  0.34828265  0.02017497    -0.24700
N401        N  0.28901460  0.49589236  0.00765020     0.02400
C402        C  0.14327933  0.42948541  0.41837983     0.43800
C403        C  0.18345337  0.46450350  0.07459956    -0.05900
N404        N  0.21189234  0.34719461  0.01903297    -0.24700
H405        H  0.10417327  0.32986246  0.05530832     0.07900
N406        N  0.17458279  0.45551918  0.43041696    -0.45900
H407        H  0.19552975  0.49392761  0.07591232     0.07900
C408        C  0.29134058  0.43182687  0.09064467     0.43600
C409        C  0.20628029  0.51783801  0.48040744    -0.05400
Co410      Co  0.24238121  0.47175194  0.03320071     0.73800
N411        N  0.15080760  0.40347844  0.08341251    -0.45600
C412        C  0.28653593  0.42451748  0.41423217     0.43900
N413        N  0.32325807  0.51661495  0.01665514    -0.45600
Co414      Co  0.19343190  0.37813839  0.04153174     0.73900
C415        C  0.22825469  0.32947101  0.02988407    -0.05900
C416        C  0.13872995  0.39399318  0.42806683    -0.05500
N417        N  0.28781393  0.49396384  0.48777307    -0.25000
N418        N  0.10426439  0.32710352  0.48431579    -0.45800
H419        H  0.24592214  0.36186991  0.41903665     0.07900
C420        C  0.29269968  0.46159760  0.07414982    -0.05900
Cl421      Cl  0.21466949  0.42040579  0.99956786    -0.48900
C422        C  0.15396752  0.43600969  0.09149982     0.43600
H423        H  0.32907346  0.51849921  0.45435119     0.07900
N424        N  0.26093570  0.40027311  0.08226001    -0.45600
C425        C  0.42504569  0.14100189  0.40800413     0.43500
N426        N  0.40581185  0.16772134  0.43685151     0.02400
C427        C  0.51810994  0.31606535  0.03214053    -0.05500
H428        H  0.51908606  0.19387221  0.05661054     0.07900
C429        C  0.38940993  0.13458627  0.08074403    -0.05800
Co430      Co  0.47007982  0.23381622  0.46207919     0.74200
N431        N  0.49663153  0.21172570  0.02275826    -0.25000
Co432      Co  0.46803220  0.23240704  0.04388433     0.74100
C433        C  0.42357889  0.13667114  0.09143856     0.43600
N434        N  0.34625760  0.13803067  0.01411369     0.02000
N435        N  0.43706021  0.18342942  0.06478528     0.02100
N436        N  0.51691526  0.31523149  0.47410371    -0.45900
H437        H  0.48542192  0.18173908  0.41847710     0.07900
N438        N  0.49584177  0.21199991  0.48623325     0.02400
N439        N  0.43896870  0.25236916  0.06444126     0.02100
C440        C  0.42912272  0.28761256  0.09199128     0.43700
N441        N  0.34647102  0.13911273  0.48242081    -0.24500
C442        C  0.45871226  0.28309564  0.42031500    -0.05400
N443        N  0.39425241  0.14039144  0.41768442    -0.45600
N444        N  0.45512870  0.28214647  0.08049340    -0.45800
C445        C  0.42804012  0.28304233  0.40613827     0.43500
N446        N  0.49732264  0.28201637  0.48525204     0.02400
N447        N  0.34761790  0.20908809  0.48203340    -0.24500
N448        N  0.44194649  0.18601895  0.43921743    -0.25000
N449        N  0.34785772  0.20887267  0.01400685     0.02000
H450        H  0.32654607  0.22935472  0.44870220     0.07900
H451        H  0.36582087  0.25034583  0.08598008     0.07900
N452        N  0.49849072  0.28164081  0.02217745    -0.25000
N453        N  0.40080621  0.16492782  0.06412669    -0.24700
N454        N  0.40721430  0.23785219  0.43612721     0.02400
C455        C  0.52971128  0.18739951  0.00781569     0.43800
C456        C  0.32822469  0.10472588  0.47208949    -0.05900
N457        N  0.40278721  0.23619646  0.06415026    -0.24700
H458        H  0.36106540  0.11387613  0.08468913     0.07900
N459        N  0.51469681  0.19722626  0.47593687    -0.45900
H460        H  0.32597397  0.09747556  0.44920098     0.07900
C461        C  0.31760853  0.23500184  0.00013039     0.43600
C462        C  0.45635916  0.17109035  0.42212122    -0.05400
Co463      Co  0.37565016  0.18795139  0.45885902     0.73800
N464        N  0.32696113  0.10373164  0.02381387    -0.45600
C465        C  0.53192778  0.33867130  0.00574581     0.43900
N466        N  0.39657565  0.25401835  0.41653210    -0.45600
Co467      Co  0.37313412  0.18642422  0.03974757     0.73900
C468        C  0.39358101  0.25661415  0.08131582    -0.05900
C469        C  0.51550563  0.19676474  0.03356385    -0.05500
N470        N  0.44335243  0.25439015  0.43820443    -0.25000
N471        N  0.45141862  0.16784212  0.08072001    -0.45800
H472        H  0.52224574  0.32373474  0.05486728     0.07900
C473        C  0.32936686  0.22515525  0.47163369    -0.05900
Cl474      Cl  0.42348333  0.21059205  0.00393256    -0.48900
C475        C  0.31502978  0.08122390  0.49801341     0.43600
H476        H  0.48790719  0.30047209  0.41639676     0.07900
N477        N  0.32868769  0.22378672  0.02380743    -0.45600
C478        C  0.29626828  0.27304058  0.02691868     0.24600
C479        C  0.29639768  0.25462377  0.00127725    -0.23500
C480        C  0.27633054  0.25550336  0.97688134     0.19500
C481        C  0.25708879  0.27466619  0.97799419     0.24600
C482        C  0.25719902  0.29342411  0.00355380    -0.23400
C483        C  0.27714136  0.29227501  0.02803731     0.19500
F484        F  0.27925583  0.31052355  0.05304384    -0.13400
F485        F  0.31552516  0.27334102  0.05089410    -0.15700
F486        F  0.25213388  0.29275077  0.45092632    -0.15700
F487        F  0.28958315  0.25696515  0.44679121    -0.13400
C488        C  0.39936554  0.57821819  0.96702815     0.24600
C489        C  0.38289782  0.55770979  0.99251282    -0.23500
C490        C  0.40201389  0.56910649  0.01921790     0.19500
C491        C  0.43475162  0.60248198  0.02109303     0.24600
C492        C  0.44875922  0.62512373  0.99629617    -0.23400
C493        C  0.43200100  0.61161127  0.96892488     0.19500
F494        F  0.44574050  0.63159541  0.94404080    -0.13400
F495        F  0.38310640  0.56768513  0.94041453    -0.15700
F496        F  0.45169525  0.61286909  0.04746841    -0.15700
F497        F  0.38818704  0.54881699  0.04394935    -0.13400
C498        C  0.27529492  0.98307246  0.02809881     0.24600
C499        C  0.25962219  0.96207784  0.50235238    -0.23500
C500        C  0.26114378  0.97989826  0.47584369     0.19500
C501        C  0.27878317  0.01834714  0.47433075     0.24600
C502        C  0.29558947  0.04022115  0.49931455    -0.23400
C503        C  0.29309218  0.02153018  0.02722642     0.19500
F504        F  0.30844962  0.04050499  0.05224437    -0.13400
F505        F  0.27480315  0.96715496  0.05399706    -0.15700
F506        F  0.27855902  0.03381911  0.44835904    -0.15700
F507        F  0.24516993  0.96017333  0.45124920    -0.13400
C508        C  0.16801612  0.59790212  0.97741738     0.24600
C509        C  0.18122961  0.62112454  0.00192784    -0.23500
C510        C  0.19126722  0.60919023  0.02718843     0.19500
C511        C  0.19325463  0.57736489  0.02640350     0.24600
C512        C  0.18521413  0.55693318  0.00034219    -0.23400
C513        C  0.17016368  0.56603516  0.97657876     0.19500
F514        F  0.15498855  0.54261013  0.46546631    -0.13400
F515        F  0.15406418  0.60645206  0.95391116    -0.15700
F516        F  0.20565545  0.56827246  0.05063674    -0.15700
F517        F  0.20190837  0.62954953  0.05208185    -0.13400
C518        C  0.39444510  0.81025452  0.47550922     0.24600
C519        C  0.38069306  0.81615615  0.99900081    -0.23500
C520        C  0.39350441  0.81115496  0.02609398     0.19500
C521        C  0.42744706  0.81353706  0.02814552     0.24600
C522        C  0.44962953  0.82113616  0.00314645    -0.23400
C523        C  0.42860823  0.81295472  0.47746905     0.19500
F524        F  0.44315524  0.80782061  0.45260247    -0.13400
F525        F  0.37757323  0.80199784  0.44904240    -0.15700
F526        F  0.43668213  0.80545022  0.05437985    -0.15700
F527        F  0.37227474  0.80131351  0.05056322    -0.13400
C528        C  0.74282935  0.01872361  0.02975335     0.24600
C529        C  0.74533515  0.03944943  0.50191127    -0.23500
C530        C  0.74882289  0.02111447  0.47746671     0.19500
C531        C  0.73167017  0.98269760  0.47701526     0.24600
C532        C  0.71058338  0.96155326  0.50102184    -0.23400
C533        C  0.72444309  0.98036734  0.02801113     0.19500
F534        F  0.72082256  0.96105423  0.05279694    -0.13400
F535        F  0.75660500  0.03445670  0.05609948    -0.15700
F536        F  0.73666490  0.96634822  0.45329798    -0.15700
F537        F  0.76951625  0.04036534  0.45411320    -0.13400
C538        C  0.98213843  0.26930775  0.48063328     0.24600
C539        C  0.96382042  0.25259806  0.00965466    -0.23500
C540        C  0.98462814  0.26402562  0.03571020     0.19500
C541        C  0.02314759  0.28377175  0.03501032     0.24600
C542        C  0.04252337  0.29305152  0.00821033    -0.23400
C543        C  0.02090356  0.28931368  0.48117558     0.19500
F544        F  0.03919547  0.30551973  0.45608894    -0.13400
F545        F  0.96468861  0.26715405  0.45507440    -0.15700
F546        F  0.04103198  0.29354521  0.06102861    -0.15700
F547        F  0.96814192  0.25644422  0.06231327    -0.13400
C548        C  0.60676179  0.18236473  0.46898043     0.24600
C549        C  0.62924794  0.18544505  0.00364634    -0.23500
C550        C  0.61200121  0.18129828  0.03089185     0.19500
C551        C  0.57751019  0.17803190  0.03238781     0.24600
C552        C  0.55997331  0.17953630  0.00666012    -0.23400
C553        C  0.57212604  0.17883099  0.47042886     0.19500
F554        F  0.55524922  0.17862172  0.44500830    -0.13400
F555        F  0.62192182  0.18573957  0.44218401    -0.15700
F556        F  0.56263561  0.17540742  0.05921522    -0.15700
F557        F  0.62924047  0.18255444  0.05636847    -0.13400
C558        C  0.98562737  0.72709894  0.98381486     0.24600
C559        C  0.96635058  0.70669151  0.00870624    -0.23500
C560        C  0.98684615  0.70579340  0.03276380     0.19500
C561        C  0.02540629  0.72506917  0.03211207     0.24600
C562        C  0.04476758  0.74595875  0.00737271    -0.23400
C563        C  0.02428548  0.74642479  0.98315094     0.19500
F564        F  0.04163682  0.76615635  0.95887996    -0.13400
F565        F  0.96664940  0.72526223  0.45864389    -0.15700
F566        F  0.04349362  0.72204189  0.05556403    -0.15700
F567        F  0.96978970  0.68526221  0.05676969    -0.13400
C568        C  0.71746282  0.73398037  0.02624292     0.24600
C569        C  0.71429683  0.74863738  0.99942489    -0.23500
C570        C  0.73080727  0.74328008  0.97445170     0.19500
C571        C  0.74947955  0.72351972  0.97627889     0.24600
C572        C  0.75247108  0.70868938  0.00313636    -0.23400
C573        C  0.73606251  0.71430043  0.02808367     0.19500
F574        F  0.73709570  0.70027491  0.05451988    -0.13400
F575        F  0.70193356  0.73803244  0.05095819    -0.15700
F576        F  0.73256405  0.68910213  0.45089958    -0.15700
F577        F  0.69400064  0.72439252  0.44965990    -0.13400
C578        C  0.81355386  0.38948544  0.03566167     0.24600
C579        C  0.82847855  0.38048786  0.01170933    -0.23500
C580        C  0.84242735  0.40477719  0.48120182     0.19500
C581        C  0.84049764  0.43675838  0.48109151     0.24600
C582        C  0.82365521  0.44411014  0.01033707    -0.23400
C583        C  0.81099130  0.42092533  0.03490046     0.19500
F584        F  0.79333920  0.42684856  0.05726058    -0.13400
F585        F  0.79852304  0.36650115  0.05886242    -0.15700
F586        F  0.85423242  0.45967069  0.45776470    -0.15700
F587        F  0.85781863  0.39747941  0.45797457    -0.13400
C588        C  0.57406863  0.40007885  0.02819389     0.24600
C589        C  0.56038270  0.37762032  0.00329524    -0.23500
C590        C  0.57484377  0.39155256  0.46684804     0.19500
C591        C  0.60736461  0.42515960  0.46512606     0.24600
C592        C  0.62632908  0.44496894  0.99993952    -0.23400
C593        C  0.60698040  0.43343140  0.02654607     0.19500
F594        F  0.62079783  0.45342834  0.05135813    -0.13400
F595        F  0.55668282  0.38942127  0.05439569    -0.15700
F596        F  0.62350318  0.43647376  0.43853732    -0.15700
F597        F  0.56127516  0.37176112  0.44188202    -0.13400
C598        C  0.42424762  0.34714490  0.15275318     0.24600
C599        C  0.46209432  0.37127911  0.15866073    -0.23500
C600        C  0.48810606  0.36952242  0.14072212     0.19500
C601        C  0.47695588  0.34339443  0.11854279     0.24600
C602        C  0.43921946  0.31774638  0.11357751    -0.23400
C603        C  0.41298792  0.32064933  0.13048303     0.19500
F604        F  0.37652217  0.29750911  0.12600755    -0.13400
F605        F  0.39786905  0.34846992  0.16890618    -0.15700
F606        F  0.50379916  0.34325177  0.10219997    -0.15700
F607        F  0.52464262  0.39309986  0.14438479    -0.13400
C608        C  0.43208400  0.35978964  0.36154770     0.24600
C609        C  0.45850183  0.36447235  0.34038007    -0.23500
C610        C  0.46988324  0.33858975  0.33840382     0.19500
C611        C  0.45673315  0.30963314  0.35833348     0.24600
C612        C  0.43235901  0.30636107  0.38080587    -0.23400
C613        C  0.41929769  0.33100001  0.38183824     0.19500
F614        F  0.39620781  0.32864923  0.40358445    -0.13400
F615        F  0.41999392  0.38408720  0.36340762    -0.15700
F616        F  0.46861530  0.28519295  0.35621386    -0.15700
F617        F  0.49328723  0.34099874  0.31691282    -0.13400
C618        C  0.62885538  0.52484584  0.13904684     0.24600
C619        C  0.63751877  0.55032231  0.16154355    -0.23500
C620        C  0.66943265  0.58523579  0.15909011     0.19500
C621        C  0.69346373  0.59353751  0.13533352     0.24600
C622        C  0.68563751  0.56730143  0.11345455    -0.23400
C623        C  0.65205390  0.53355113  0.11491454     0.19500
F624        F  0.64118733  0.50872021  0.09289169    -0.13400
F625        F  0.59743075  0.49167621  0.14006955    -0.15700
F626        F  0.72495175  0.62659840  0.13440315    -0.15700
F627        F  0.67837191  0.61081886  0.18033644    -0.13400
C628        C  0.65814131  0.52783703  0.34552488     0.24600
C629        C  0.64031833  0.54820432  0.34300568    -0.23500
C630        C  0.65251506  0.57985783  0.36057537     0.19500
C631        C  0.68218390  0.59110870  0.37982063     0.24600
C632        C  0.69975258  0.57062288  0.38229744    -0.23400
C633        C  0.68756582  0.53895889  0.36485536     0.19500
F634        F  0.70420819  0.51855496  0.36646862    -0.13400
F635        F  0.64749095  0.49734103  0.32905744    -0.15700
F636        F  0.69235662  0.62082612  0.39713730    -0.15700
F637        F  0.63496109  0.59933084  0.36013157    -0.13400
C638        C  0.52206129  0.63158751  0.13708308     0.24600
C639        C  0.54570312  0.63697894  0.16052642    -0.23500
C640        C  0.58248645  0.66631539  0.15906541     0.19500
C641        C  0.59482480  0.69054646  0.13515227     0.24600
C642        C  0.57077050  0.68568810  0.11207265    -0.23400
C643        C  0.53453275  0.65526038  0.11302613     0.19500
F644        F  0.51069912  0.64840926  0.09063408    -0.13400
F645        F  0.48694571  0.60300895  0.13707237    -0.15700
F646        F  0.62971045  0.71949319  0.13530811    -0.15700
F647        F  0.60630388  0.67244764  0.18132925    -0.13400
C648        C  0.58340978  0.67393992  0.38249957     0.24600
C649        C  0.56534401  0.69384941  0.38591130    -0.23500
C650        C  0.53602024  0.68697878  0.36703546     0.19500
C651        C  0.52367210  0.65924002  0.34609357     0.24600
C652        C  0.54072472  0.63820017  0.34342402    -0.23400
C653        C  0.57122397  0.64630944  0.36134716     0.19500
F654        F  0.58831920  0.62644904  0.35919088    -0.13400
F655        F  0.61127449  0.67968325  0.40078059    -0.15700
F656        F  0.49555646  0.65353957  0.32813709    -0.15700
F657        F  0.51901280  0.70700087  0.36904730    -0.13400
C658        C  0.33343505  0.41892395  0.11951219     0.24600
C659        C  0.31381244  0.43734194  0.11670001    -0.23500
C660        C  0.32031381  0.46560165  0.13645334     0.19500
C661        C  0.34704844  0.47613764  0.15816517     0.24600
C662        C  0.36756132  0.45846720  0.16053430    -0.23400
C663        C  0.36041363  0.42959184  0.14110531     0.19500
F664        F  0.38062105  0.41272299  0.14203729    -0.13400
F665        F  0.32805273  0.39217261  0.10025714    -0.15700
F666        F  0.35249206  0.50326175  0.17704392    -0.15700
F667        F  0.30084211  0.48321068  0.13461755    -0.13400
C668        C  0.36835902  0.47954523  0.36433889     0.24600
C669        C  0.36360143  0.45390177  0.34290473    -0.23500
C670        C  0.33415943  0.41740618  0.34583675     0.19500
C671        C  0.30976675  0.40705549  0.36956225     0.24600
C672        C  0.31420379  0.43293453  0.39079855    -0.23400
C673        C  0.34428093  0.46920364  0.38810007     0.19500
F674        F  0.35063595  0.49510335  0.40850199    -0.13400
F675        F  0.39685410  0.51458771  0.36268660    -0.15700
F676        F  0.28121242  0.37208924  0.37105878    -0.15700
F677        F  0.32789914  0.39183176  0.32517066    -0.13400
C678        C  0.87430681  0.52605528  0.16258798     0.24600
C679        C  0.91238103  0.54039683  0.16089015    -0.23500
C680        C  0.93307169  0.56870081  0.14066323     0.19500
C681        C  0.91567389  0.58132385  0.12158562     0.24600
C682        C  0.87740228  0.56598743  0.12268434    -0.23400
C683        C  0.85704370  0.53884977  0.14380377     0.19500
F684        F  0.82004692  0.52415106  0.14589832    -0.13400
F685        F  0.85380874  0.50015300  0.18282125    -0.15700
F686        F  0.93581639  0.60674254  0.10092204    -0.15700
F687        F  0.96996324  0.58304167  0.13856202    -0.13400
C688        C  0.87369017  0.52831485  0.38334387     0.24600
C689        C  0.88511213  0.56579171  0.38790076    -0.23500
C690        C  0.91130213  0.59181329  0.36869337     0.19500
C691        C  0.92537653  0.58056856  0.34550376     0.24600
C692        C  0.91323508  0.54294355  0.34083800    -0.23400
C693        C  0.88729505  0.51718023  0.36016264     0.19500
F694        F  0.87514334  0.48089116  0.35712254    -0.13400
F695        F  0.84887728  0.50167112  0.40128193    -0.15700
F696        F  0.95049531  0.60665835  0.32736038    -0.15700
F697        F  0.92287501  0.62797514  0.37189147    -0.13400
C698        C  0.90353396  0.30499589  0.14122453     0.24600
C699        C  0.89039528  0.31403042  0.11621785    -0.23500
C700        C  0.89679989  0.35005329  0.11310176     0.19500
C701        C  0.91255524  0.37533851  0.13579427     0.24600
C702        C  0.92347314  0.36560095  0.16151889    -0.23400
C703        C  0.92031025  0.33081666  0.16370030     0.19500
F704        F  0.93160829  0.32116151  0.18824972    -0.13400
F705        F  0.89807696  0.27067873  0.14473716    -0.15700
F706        F  0.91753447  0.40952260  0.13252301    -0.15700
F707        F  0.88718274  0.36069962  0.08817063    -0.13400
C708        C  0.92406935  0.33360401  0.34371652     0.24600
C709        C  0.91742844  0.36311397  0.34060189    -0.23500
C710        C  0.89528466  0.36732583  0.36115915     0.19500
C711        C  0.88046859  0.34309592  0.38461935     0.24600
C712        C  0.88662888  0.31322854  0.38779205    -0.23400
C713        C  0.90873110  0.30884594  0.36708813     0.19500
F714        F  0.91469312  0.28017413  0.36883259    -0.13400
F715        F  0.94433102  0.32778976  0.32361585    -0.15700
F716        F  0.85996213  0.34919880  0.40428994    -0.15700
F717        F  0.88866522  0.39557538  0.35903720    -0.13400
C718        C  0.14489652  0.48712182  0.15571820     0.24600
C719        C  0.10721692  0.46661626  0.16186813    -0.23500
C720        C  0.08507486  0.43394585  0.14599027     0.19500
C721        C  0.10036704  0.42269074  0.12386774     0.24600
C722        C  0.13796664  0.44372808  0.11744976    -0.23400
C723        C  0.16016254  0.47560047  0.13409835     0.19500
F724        F  0.19708085  0.49568690  0.12979524    -0.13400
F725        F  0.16741207  0.51790503  0.17111538    -0.15700
F726        F  0.07822040  0.39224397  0.10794121    -0.15700
F727        F  0.04838558  0.41341015  0.15126122    -0.13400
C728        C  0.13047393  0.47510009  0.39480800     0.24600
C729        C  0.12467331  0.43908435  0.39552903    -0.23500
C730        C  0.10552567  0.41514142  0.37245759     0.19500
C731        C  0.09345102  0.42732278  0.34874078     0.24600
C732        C  0.10046817  0.46377071  0.34761542    -0.23400
C733        C  0.11874520  0.48735663  0.37103323     0.19500
F734        F  0.12483402  0.52213223  0.37123718    -0.13400
F735        F  0.14808340  0.49888921  0.41705631    -0.15700
F736        F  0.07608181  0.40369737  0.32632022    -0.15700
F737        F  0.10009819  0.38062707  0.37199446    -0.13400
C738        C  0.14033774  0.66530905  0.16236099     0.24600
C739        C  0.10263140  0.63954383  0.16178179    -0.23500
C740        C  0.08048619  0.64145983  0.13949193     0.19500
C741        C  0.09578759  0.66865079  0.11804090     0.24600
C742        C  0.13340553  0.69428122  0.11859444    -0.23400
C743        C  0.15563662  0.69248404  0.14085121     0.19500
F744        F  0.19241475  0.71665218  0.14129625    -0.13400
F745        F  0.16219757  0.66456396  0.18390523    -0.15700
F746        F  0.07440104  0.66844457  0.09568181    -0.15700
F747        F  0.04423752  0.61593375  0.13770920    -0.13400
C748        C  0.12371510  0.65563481  0.39099816     0.24600
C749        C  0.11834801  0.68606187  0.39324712    -0.23500
C750        C  0.09983457  0.69254629  0.37057299     0.19500
C751        C  0.08779725  0.66964020  0.34594064     0.24600
C752        C  0.09419646  0.63993865  0.34354346    -0.23400
C753        C  0.11231270  0.63329846  0.36626358     0.19500
F754        F  0.11833782  0.60461557  0.36488176    -0.13400
F755        F  0.14041449  0.64742512  0.41273816    -0.15700
F756        F  0.07117753  0.67751705  0.32394373    -0.15700
F757        F  0.09450451  0.72165074  0.37158800    -0.13400
C758        C  0.38142328  0.89500547  0.13275816     0.24600
C759        C  0.37075765  0.90628427  0.15781044    -0.23500
C760        C  0.33795758  0.90772514  0.15730708     0.19500
C761        C  0.31472308  0.89512522  0.13289246     0.24600
C762        C  0.32431996  0.88150115  0.10854724    -0.23400
C763        C  0.35878772  0.88343276  0.10812663     0.19500
F764        F  0.37050955  0.87368144  0.08389001    -0.13400
F765        F  0.41407072  0.89581593  0.13187601    -0.15700
F766        F  0.28210985  0.89440868  0.13376411    -0.15700
F767        F  0.32753163  0.91978148  0.18096108    -0.13400
C768        C  0.32436912  0.90469853  0.37897057     0.24600
C769        C  0.31036254  0.86804587  0.38713550    -0.23500
C770        C  0.32421170  0.84757861  0.37317071     0.19500
C771        C  0.35168454  0.86349495  0.35193542     0.24600
C772        C  0.36596257  0.90022458  0.34384465    -0.23400
C773        C  0.35186114  0.92064021  0.35752031     0.19500
F774        F  0.36498706  0.95631870  0.35045110    -0.13400
F775        F  0.31234875  0.92545759  0.39228449    -0.15700
F776        F  0.36335866  0.84235777  0.33880158    -0.15700
F777        F  0.31078922  0.81163588  0.37963202    -0.13400
C778        C  0.53462880  0.86489236  0.12332022     0.24600
C779        C  0.57179862  0.87437502  0.11908534    -0.23500
C780        C  0.59844581  0.89984766  0.13832690     0.19500
C781        C  0.58838144  0.91599909  0.16065452     0.24600
C782        C  0.55134767  0.90706074  0.16425424    -0.23400
C783        C  0.52468547  0.88100794  0.14550839     0.19500
F784        F  0.48882913  0.87160750  0.14813327    -0.13400
F785        F  0.50735370  0.83997415  0.10587321    -0.15700
F786        F  0.61496875  0.93956843  0.17922443    -0.15700
F787        F  0.63412092  0.90864639  0.13609203    -0.13400
C788        C  0.58094672  0.92873762  0.35986063     0.24600
C789        C  0.54817604  0.90902310  0.34332665    -0.23500
C790        C  0.52535904  0.87143654  0.34884928     0.19500
C791        C  0.53485481  0.85398606  0.37018742     0.24600
C792        C  0.56714920  0.87376417  0.38708746    -0.23400
C793        C  0.59038382  0.91113918  0.38135629     0.19500
F794        F  0.62131847  0.93104382  0.39751461    -0.13400
F795        F  0.60335960  0.96536688  0.35626383    -0.15700
F796        F  0.51233631  0.81735297  0.37396854    -0.15700
F797        F  0.49376489  0.85123096  0.33348813    -0.13400
C798        C  0.66462247  0.09096345  0.16053744     0.24600
C799        C  0.63112448  0.09095249  0.15886217    -0.23500
C800        C  0.62216897  0.10248978  0.13302521     0.19500
C801        C  0.64696407  0.11530692  0.10966835     0.24600
C802        C  0.68170719  0.11797387  0.11212576    -0.23400
C803        C  0.68983413  0.10459076  0.13739188     0.19500
F804        F  0.72296142  0.10676195  0.14046218    -0.13400
F805        F  0.67377292  0.07940283  0.18520224    -0.15700
F806        F  0.63712482  0.12558761  0.08467121    -0.15700
F807        F  0.58920538  0.10076705  0.13017371    -0.13400
C808        C  0.65625991  0.13006349  0.38853838     0.24600
C809        C  0.68614856  0.12359420  0.38948038    -0.23500
C810        C  0.68828070  0.10101351  0.36805642     0.19500
C811        C  0.66200340  0.08641022  0.34562158     0.24600
C812        C  0.63307418  0.09426783  0.34401096    -0.23400
C813        C  0.63025251  0.11582419  0.36598610     0.19500
F814        F  0.60203069  0.12271520  0.36603500    -0.13400
F815        F  0.65207164  0.15037929  0.40952404    -0.15700
F816        F  0.66578501  0.06555927  0.32484751    -0.15700
F817        F  0.71661349  0.09432852  0.36793788    -0.13400
C818        C  0.41360771  0.07753571  0.15717247     0.24600
C819        C  0.44951393  0.08293921  0.15931872    -0.23500
C820        C  0.47516883  0.10290528  0.13743117     0.19500
C821        C  0.46560360  0.11814852  0.11433570     0.24600
C822        C  0.43032318  0.11446456  0.11295206    -0.23400
C823        C  0.40414215  0.09322496  0.13420943     0.19500
F824        F  0.37004154  0.08916345  0.13375886    -0.13400
F825        F  0.38804758  0.05867222  0.17809719    -0.15700
F826        F  0.49123384  0.13693530  0.09341405    -0.15700
F827        F  0.50945993  0.10736314  0.13818243    -0.13400
C828        C  0.45326183  0.14293224  0.36004818     0.24600
C829        C  0.42839736  0.12204179  0.38236755    -0.23500
C830        C  0.41299132  0.08396253  0.38264630     0.19500
C831        C  0.42356493  0.06708702  0.36153474     0.24600
C832        C  0.44970301  0.08819235  0.33990182    -0.23400
C833        C  0.46391342  0.12616146  0.33902403     0.19500
F834        F  0.48790828  0.14702503  0.31774349    -0.13400
F835        F  0.46795899  0.17987157  0.35906831    -0.15700
F836        F  0.40977165  0.03037387  0.36328246    -0.15700
F837        F  0.38977891  0.06350043  0.40448208    -0.13400
C838        C  0.46758164  0.07642795  0.81829300     0.43500
N839        N  0.49681514  0.06779312  0.78338367     0.02400
C840        C  0.42466453  0.91325523  0.69597656    -0.05500
H841        H  0.42418303  0.88738594  0.81020333     0.07900
C842        C  0.56808379  0.96797479  0.80663247    -0.05800
Co843      Co  0.44591451  0.99924016  0.75131249     0.74200
N844        N  0.43973042  0.93498309  0.78333940    -0.25000
Co845      Co  0.47748789  0.93747911  0.75191564     0.74100
C846        C  0.54307292  0.93329125  0.82055369     0.43600
N847        N  0.58352468  0.05147300  0.78401788     0.02000
N848        N  0.51493068  0.94236616  0.78501842     0.02100
N849        N  0.40543360  0.95442362  0.69930908    -0.45900
H850        H  0.41380515  0.02342842  0.80668786     0.07900
N851        N  0.42863057  0.95913186  0.78282424     0.02400
N852        N  0.51647178  0.94189965  0.72075675     0.02100
C853        C  0.54722019  0.93115829  0.68857883     0.43700
N854        N  0.57246311  0.07566801  0.78396102    -0.24500
C855        C  0.44273182  0.04300303  0.69895520    -0.05400
N856        N  0.50065311  0.09110749  0.80445880    -0.45600
N857        N  0.51332738  0.91767326  0.70071530    -0.45800
C858        C  0.46764097  0.07699106  0.68412988     0.43500
N859        N  0.42950877  0.95948301  0.71986927     0.02400
N860        N  0.57143712  0.07331820  0.71908637    -0.24500
N861        N  0.46318626  0.03924785  0.78267021    -0.25000
N862        N  0.58332044  0.04979143  0.72081459     0.02000
H863        H  0.58108318  0.11506297  0.68708215     0.07900
H864        H  0.60066447  0.98431966  0.69978957     0.07900
N865        N  0.44118142  0.93572554  0.71895691    -0.25000
N866        N  0.54848140  0.97116110  0.78507581    -0.24700
N867        N  0.49696773  0.06769386  0.71866942     0.02400
C868        C  0.39755275  0.92324808  0.81794561     0.43800
C869        C  0.59024894  0.09966430  0.80589608    -0.05900
N870        N  0.55027716  0.97007058  0.72219172    -0.24700
H871        H  0.59702439  0.98657318  0.81059251     0.07900
N872        N  0.40353908  0.95301673  0.80280837    -0.45900
H873        H  0.58778160  0.12332914  0.81101142     0.07900
C874        C  0.60836215  0.07954317  0.68168402     0.43600
C875        C  0.44283394  0.04225326  0.80358551    -0.05400
Co876      Co  0.53510709  0.07252966  0.75127086     0.73800
N877        N  0.60827630  0.05759795  0.80434339    -0.45600
C878        C  0.40084478  0.92595437  0.68323678     0.43900
N879        N  0.50099346  0.09108768  0.69742991    -0.45600
Co880      Co  0.56666258  0.01082719  0.75309765     0.73900
C881        C  0.57152982  0.96581389  0.70277070    -0.05900
C882        C  0.42165394  0.91099456  0.80505042    -0.05500
N883        N  0.46313049  0.03947635  0.71969933    -0.25000
N884        N  0.51061414  0.91850792  0.80582928    -0.45800
H885        H  0.42785103  0.89032057  0.68967907     0.07900
C886        C  0.58581898  0.09352249  0.69468587    -0.05900
Cl887      Cl  0.50628881  0.00501200  0.75189425    -0.48900
C888        C  0.61422186  0.08742260  0.81930790     0.43600
H889        H  0.41372538  0.02439555  0.69524666     0.07900
N890        N  0.60538025  0.05273652  0.69920046    -0.45600
C891        C  0.06954641  0.60839409  0.81875944     0.43500
N892        N  0.06073080  0.56912698  0.78504081     0.02400
C893        C  0.90430191  0.48503999  0.69786624    -0.05500
H894        H  0.88159627  0.46204682  0.81279841     0.07900
C895        C  0.96071569  0.39591451  0.80515753    -0.05800
Co896      Co  0.99269765  0.55084901  0.75134312     0.74200
N897        N  0.92815734  0.49306166  0.78414030    -0.25000
Co898      Co  0.93040270  0.45746179  0.75270261     0.74100
C899        C  0.92692478  0.38673333  0.82005915     0.43600
N900        N  0.04374162  0.46520928  0.78438955     0.02000
N901        N  0.93550810  0.42477082  0.78552019     0.02100
N902        N  0.94762741  0.54516474  0.69855940    -0.45900
H903        H  0.01653122  0.60836084  0.80670779     0.07900
N904        N  0.95225402  0.52846112  0.78254077     0.02400
N905        N  0.93511386  0.42355108  0.72096308     0.02100
C906        C  0.92579142  0.38439611  0.68725731     0.43700
N907        N  0.06789332  0.50061568  0.78555096    -0.24500
C908        C  0.03790580  0.59810469  0.69999777    -0.05400
N909        N  0.08388756  0.58913321  0.80618925    -0.45600
N910        N  0.91165464  0.40373140  0.69992689    -0.45800
C911        C  0.07345718  0.60921120  0.68698959     0.43500
N912        N  0.95307284  0.52679927  0.71943280     0.02400
N913        N  0.06814921  0.50096300  0.72106944    -0.24500
N914        N  0.03245704  0.57444325  0.78329124    -0.25000
N915        N  0.04372125  0.46556207  0.72115210     0.02000
H916        H  0.11425504  0.53415600  0.69275589     0.07900
H917        H  0.97865140  0.38393093  0.69827265     0.07900
N918        N  0.92823941  0.49152176  0.71980807    -0.25000
N919        N  0.96379654  0.41940789  0.78438261    -0.24700
N920        N  0.06238959  0.56929995  0.72077698     0.02400
C921        C  0.91779031  0.52513503  0.81818986     0.43800
C922        C  0.09110321  0.50601356  0.80789905    -0.05900
N923        N  0.96349990  0.41838733  0.72200886    -0.24700
H924        H  0.97954825  0.38598823  0.80885189     0.07900
N925        N  0.94698239  0.54825144  0.80212603    -0.45900
H926        H  0.11475173  0.53202565  0.81384893     0.07900
C927        C  0.07797930  0.47171104  0.68451640     0.43600
C928        C  0.03553549  0.59852999  0.80360269    -0.05400
Co929      Co  0.06610854  0.53568337  0.75326137     0.73800
N930        N  0.04901482  0.44574248  0.80430801    -0.45600
C931        C  0.91757796  0.52095336  0.68373148     0.43900
N932        N  0.08744443  0.59059182  0.70116633    -0.45600
Co933      Co  0.00384296  0.44210719  0.75293193     0.73900
C934        C  0.95990657  0.39402096  0.70182290    -0.05900
C935        C  0.90499734  0.48801797  0.80642935    -0.05500
N936        N  0.03353790  0.57369709  0.72045174    -0.25000
N937        N  0.91242345  0.40557782  0.80701754    -0.45800
H938        H  0.88040555  0.45878573  0.69285363     0.07900
C939        C  0.09120154  0.50761642  0.69851360    -0.05900
Cl940      Cl  0.99824509  0.49653293  0.75262526    -0.48900
C941        C  0.07822679  0.46911517  0.82019480     0.43600
H942        H  0.01957593  0.60871109  0.69655907     0.07900
N943        N  0.04871328  0.44721617  0.69998124    -0.45600
C944        C  0.39514234  0.45998077  0.81870190     0.43500
N945        N  0.43546073  0.49015138  0.78545437     0.02400
C946        C  0.51473647  0.41461023  0.69757347    -0.05500
H947        H  0.54227260  0.41634420  0.81117427     0.07900
C948        C  0.60977693  0.56080245  0.80430684    -0.05800
Co949      Co  0.45230720  0.43918452  0.75278181     0.74200
N950        N  0.51049544  0.43227701  0.78415794    -0.25000
Co951      Co  0.54539774  0.46910928  0.75206158     0.74100
C952        C  0.61961282  0.53617872  0.81814919     0.43600
N953        N  0.54034879  0.57544466  0.78532797     0.02000
N954        N  0.57990332  0.50688865  0.78433211     0.02100
N955        N  0.45463404  0.39744981  0.70074129    -0.45900
H956        H  0.39408116  0.40655103  0.80747445     0.07900
N957        N  0.47522918  0.42199622  0.78408923     0.02400
N958        N  0.57835186  0.50718493  0.71978103     0.02100
C959        C  0.61439656  0.53580984  0.68398879     0.43700
N960        N  0.50508490  0.56524663  0.78555757    -0.24500
C961        C  0.40621801  0.43699854  0.70078621    -0.05400
N962        N  0.41508704  0.49359368  0.80608379    -0.45600
N963        N  0.59566843  0.50261595  0.69729835    -0.45800
C964        C  0.39680843  0.46177494  0.68651188     0.43500
N965        N  0.47437465  0.42170559  0.72100558     0.02400
N966        N  0.50502767  0.56589797  0.72147020    -0.24500
N967        N  0.42971741  0.45644522  0.78426995    -0.25000
N968        N  0.54038363  0.57666845  0.72215552     0.02000
H969        H  0.47377972  0.58233166  0.69441091     0.07900
H970        H  0.61717197  0.58985241  0.69582750     0.07900
N971        N  0.50966696  0.43235164  0.72000338    -0.25000
N972        N  0.58541670  0.54051833  0.78387994    -0.24700
N973        N  0.43561847  0.49074905  0.72102448     0.02400
C974        C  0.47978690  0.39136089  0.81931433     0.43800
C975        C  0.49981938  0.58407667  0.80692759    -0.05900
N976        N  0.58459174  0.54105899  0.72127652    -0.24700
H977        H  0.62000015  0.58955935  0.80820020     0.07900
N978        N  0.45608124  0.39769196  0.80447002    -0.45900
H979        H  0.47400407  0.58260870  0.81195612     0.07900
C980        C  0.53665575  0.60820174  0.68700766     0.43600
C981        C  0.40490233  0.43560095  0.80430294    -0.07200
Co982      Co  0.46955969  0.52855098  0.75339093     0.73800
N983        N  0.55986309  0.60039911  0.80526950    -0.45600
C984        C  0.47775188  0.39134285  0.68479789     0.43900
N985        N  0.41561667  0.49468851  0.70037128    -0.45600
Co986      Co  0.56279464  0.55855590  0.75323150     0.73900
C987        C  0.60714680  0.56108301  0.69978465    -0.05900
C988        C  0.51622118  0.41418514  0.80588075    -0.05500
N989        N  0.43009415  0.45711504  0.72156738    -0.25000
N990        N  0.60002768  0.50292061  0.80491465    -0.45800
H991        H  0.54070431  0.41692809  0.69174135     0.07900
C992        C  0.49976098  0.58434159  0.69970398    -0.05900
Cl993      Cl  0.50750630  0.49885991  0.75290959    -0.48900
C994        C  0.53643782  0.60727313  0.82002438     0.43600
H995        H  0.39523340  0.40793899  0.69753528     0.07900
N996        N  0.55997469  0.60171632  0.70231179    -0.45600
C997        C  0.81319256  0.47246889  0.50173424     0.43500
N998        N  0.78670732  0.50278698  0.51224092     0.02400
C999        C  0.75487240  0.61139458  0.92402103    -0.05500
H1000       H  0.88999667  0.63740655  0.91899358     0.07900
C1001       C  0.89813837  0.66847163  0.53258657    -0.05800
Co1002     Co  0.77357733  0.53573789  0.96632702     0.74200
N1003       N  0.84217952  0.60069064  0.94490525    -0.25000
Co1004     Co  0.82137064  0.63013609  0.96824566     0.74100
C1005       C  0.92524256  0.68610893  0.00929593     0.43600
N1006       N  0.82837204  0.58871343  0.56490815     0.02000
N1007       N  0.86881237  0.65627036  0.99468706     0.02100
N1008       N  0.72680124  0.54972416  0.92596674    -0.45900
H1009       H  0.81140351  0.48219633  0.95803988     0.07900
N1010       N  0.82317183  0.56460631  0.94620352     0.02400
N1011       N  0.79887656  0.65695866  0.99244893     0.02100
C1012       C  0.77234898  0.68757864  0.50137904     0.43700
N1013       N  0.80828783  0.55298113  0.56108311    -0.24500
C1014       C  0.69005110  0.48856590  0.97494276    -0.05400
N1015       N  0.79967734  0.48305065  0.52396871    -0.45600
N1016       N  0.78426724  0.67613517  0.98185271    -0.45800
C1017       C  0.66285911  0.47421298  0.49114651     0.43500
N1018       N  0.75545476  0.56520169  0.94345652     0.02400
N1019       N  0.74173170  0.55510172  0.55599690    -0.24500
N1020       N  0.79231852  0.50664907  0.98964357    -0.25000
N1021       N  0.75948184  0.59082951  0.56009103     0.02000
H1022       H  0.69131203  0.51040973  0.57179765     0.07900
H1023       H  0.77370263  0.67405169  0.55012655     0.07900
N1024       N  0.77281740  0.60132007  0.94305923    -0.25000
N1025       N  0.86428587  0.65128536  0.52080143    -0.24700
N1026       N  0.71803448  0.50394263  0.50749060     0.02400
C1027       C  0.86603338  0.57438333  0.91596193     0.43800
C1028       C  0.81924181  0.53573783  0.57913055    -0.05900
N1029       N  0.79566693  0.65354380  0.51750806    -0.24700
H1030       H  0.90393536  0.67044446  0.55577191     0.07900
N1031       N  0.83612194  0.54841301  0.92955535    -0.45900
H1032       H  0.80657478  0.50632421  0.58130590     0.07900
C1033       C  0.70858762  0.56969055  0.58393671     0.43600
C1034       C  0.80735414  0.48701279  0.98058150    -0.05400
Co1035     Co  0.76346203  0.52833325  0.53435333     0.73800
N1036       N  0.85334753  0.59712532  0.58600704    -0.45600
C1037       C  0.72386356  0.57650930  0.91297733     0.43900
N1038       N  0.68334233  0.48450967  0.51577495    -0.45600
Co1039     Co  0.81266638  0.62228324  0.54151580     0.73900
C1040       C  0.77998366  0.67235692  0.52744203    -0.05900
C1041       C  0.87025975  0.60983506  0.92586658    -0.05500
N1042       N  0.72354146  0.50725035  0.98666181    -0.25000
N1043       N  0.90334229  0.67507012  0.98531899    -0.45800
H1044       H  0.76293231  0.63929115  0.91826086     0.07900
C1045       C  0.70980863  0.53961531  0.56998746    -0.05900
Cl1046     Cl  0.79272394  0.57927013  0.50012161    -0.48900
C1047       C  0.84878508  0.56453671  0.59570338     0.43600
H1048       H  0.68458189  0.48546174  0.95175806     0.07900
N1049       N  0.74075929  0.60089384  0.57750270    -0.45600
C1050       C  0.66534227  0.19651805  0.49440862     0.43500
N1051       N  0.72059856  0.21841858  0.50953425     0.02400
C1052       C  0.87091037  0.25577430  0.92828317    -0.05500
H1053       H  0.75696142  0.12185784  0.91906849     0.07900
C1054       C  0.77349503  0.10394705  0.52838789    -0.05800
Co1055     Co  0.77581610  0.23906356  0.96785575     0.74200
N1056       N  0.76991012  0.17039893  0.94426353    -0.25000
Co1057     Co  0.81842541  0.18753715  0.96948107     0.74100
C1058       C  0.76662485  0.08113153  0.00637735     0.43600
N1059       N  0.75862698  0.16863931  0.56090164     0.02000
N1060       N  0.79387508  0.13815109  0.99366943     0.02100
N1061       N  0.84045948  0.28685275  0.93154494    -0.45900
H1062       H  0.68666868  0.20507974  0.95413718     0.07900
N1063       N  0.75459581  0.19103069  0.94472501     0.02400
N1064       N  0.86597966  0.20667784  0.99568623     0.02100
C1065       C  0.92030609  0.23220710  0.50592979     0.43700
N1066       N  0.74287946  0.18857639  0.55746881    -0.24500
C1067       C  0.81413451  0.32196561  0.98240177    -0.05400
N1068       N  0.68648114  0.20537456  0.51861716    -0.45600
N1069       N  0.90049065  0.22190567  0.98632654    -0.45800
C1070       C  0.82000435  0.34237829  0.50184279     0.43500
N1071       N  0.82504668  0.25711340  0.94771831     0.02400
N1072       N  0.81261386  0.25513323  0.56049976    -0.24500
N1073       N  0.72627537  0.22029332  0.98850918    -0.25000
N1074       N  0.83078451  0.23752158  0.56359930     0.02000
H1075       H  0.81714892  0.30354833  0.57935714     0.07900
H1076       H  0.90146040  0.22703574  0.55409496     0.07900
N1077       N  0.84190130  0.23798401  0.94658374    -0.25000
N1078       N  0.79012729  0.13823678  0.51789238    -0.24700
N1079       N  0.79219532  0.28536844  0.51246162     0.02400
C1080       C  0.72111984  0.14909812  0.91382779     0.43800
C1081       C  0.71097162  0.17332341  0.57154706    -0.05900
N1082       N  0.86136137  0.20664161  0.51958857    -0.24700
H1083       H  0.76893221  0.09680800  0.55131507     0.07900
N1084       N  0.72613571  0.17954104  0.92710230    -0.45900
H1085       H  0.69354318  0.18517668  0.57352562     0.07900
C1086       C  0.85876288  0.28551856  0.59075436     0.43600
C1087       C  0.69267588  0.20704991  0.97722722    -0.05400
Co1088     Co  0.76678912  0.23697432  0.53524998     0.73800
N1089       N  0.73837211  0.13942375  0.57765590    -0.45600
C1090       C  0.86981597  0.28867977  0.91863085     0.43900
N1091       N  0.80666498  0.31827787  0.52407315    -0.45600
Co1092     Co  0.81076965  0.18719724  0.54118520     0.73900
C1093       C  0.89532542  0.22223221  0.53103835    -0.05900
C1094       C  0.75061457  0.14284491  0.92500043    -0.05500
N1095       N  0.79766342  0.28710906  0.99138839    -0.25000
N1096       N  0.77868641  0.10430232  0.98312725    -0.45800
H1097       H  0.88953659  0.24638428  0.92194395     0.07900
C1098       C  0.82778807  0.28515938  0.57682520    -0.05900
Cl1099     Cl  0.79178197  0.21177638  0.50033694    -0.48900
C1100       C  0.70739184  0.14044073  0.58450278     0.43600
H1101       H  0.81803279  0.33085928  0.95983195     0.07900
N1102       N  0.85877531  0.25461666  0.58224545    -0.45600
C1103       C  0.33864302  0.80426991  0.50013984     0.43500
N1104       N  0.28357110  0.78337718  0.51521537     0.02400
C1105       C  0.13725071  0.74652278  0.92293752    -0.05500
H1106       H  0.25152892  0.88327586  0.91592343     0.07900
C1107       C  0.23064265  0.89814662  0.53038029    -0.05800
Co1108     Co  0.23427513  0.76469850  0.96064547     0.74200
N1109       N  0.23834605  0.83338522  0.93922072    -0.25000
Co1110     Co  0.18962049  0.81467235  0.96448793     0.74100
C1111       C  0.24013370  0.92055480  0.00339985     0.43600
N1112       N  0.24570573  0.83470108  0.56525604     0.02000
N1113       N  0.21361352  0.86376507  0.98944574     0.02100
N1114       N  0.16937020  0.71704030  0.92405796    -0.45900
H1115       H  0.32589022  0.79971997  0.94758814     0.07900
N1116       N  0.25412324  0.81316665  0.93894199     0.02400
N1117       N  0.14202013  0.79378014  0.99116776     0.02100
C1118       C  0.08416849  0.76803467  0.50920102     0.43700
N1119       N  0.26164452  0.81487298  0.56214933    -0.24500
C1120       C  0.19743894  0.68135369  0.97356495    -0.05400
N1121       N  0.31762473  0.79611423  0.52433071    -0.45600
N1122       N  0.10720220  0.77810024  0.98238643    -0.45800
C1123       C  0.18673666  0.65921183  0.50947351     0.43500
N1124       N  0.18464564  0.74643828  0.94064045     0.02400
N1125       N  0.19239537  0.74837422  0.56663003    -0.24500
N1126       N  0.28454772  0.78396109  0.98108289    -0.25000
N1127       N  0.17417707  0.76602601  0.56935509     0.02000
H1128       H  0.19003465  0.70205244  0.58805512     0.07900
H1129       H  0.10230681  0.77518720  0.55770221     0.07900
N1130       N  0.16685681  0.76472167  0.94068380    -0.25000
N1131       N  0.21399725  0.86354303  0.52066125    -0.24700
N1132       N  0.21239652  0.71631357  0.51942781     0.02400
C1133       C  0.28792930  0.85675873  0.90956832     0.43800
C1134       C  0.29341501  0.83033833  0.57641646    -0.05900
N1135       N  0.14292416  0.79497974  0.52349535    -0.24700
H1136       H  0.23511743  0.90573324  0.55321915     0.07900
N1137       N  0.28298328  0.82585846  0.92178779    -0.45900
H1138       H  0.31102475  0.81870799  0.57883845     0.07900
C1139       C  0.15030760  0.72186411  0.60050329     0.43600
C1140       C  0.31873375  0.79747567  0.97048420    -0.05400
Co1141     Co  0.23768625  0.76562893  0.54101436     0.73800
N1142       N  0.26551746  0.86384831  0.58221911    -0.45600
C1143       C  0.13910118  0.71440988  0.91211031     0.43900
N1144       N  0.19941081  0.68372920  0.53149038    -0.45600
Co1145     Co  0.19354791  0.81540283  0.54533163     0.73900
C1146       C  0.10878574  0.77905016  0.53462924    -0.05900
C1147       C  0.25790958  0.86206086  0.92094541    -0.05500
N1148       N  0.21350492  0.71593726  0.98319013    -0.25000
N1149       N  0.22827695  0.89801582  0.97968062    -0.45800
H1150       H  0.11767068  0.75513528  0.91779116     0.07900
C1151       C  0.17920232  0.72023473  0.58498230    -0.05900
Cl1152     Cl  0.21232740  0.78956195  0.50526850    -0.48900
C1153       C  0.29649582  0.86295224  0.58933852     0.43600
H1154       H  0.19346586  0.67326494  0.95090398     0.07900
N1155       N  0.14828137  0.75098530  0.58996626    -0.45600
C1156       C  0.57978711  0.85971876  0.90887701     0.43500
N1157       N  0.60059374  0.83461390  0.93821608     0.02400
C1158       C  0.49249891  0.68757849  0.53450364    -0.05500
H1159       H  0.48788226  0.80757319  0.55659191     0.07900
C1160       C  0.62020923  0.86574028  0.58456376    -0.05800
Co1161     Co  0.53730381  0.76836637  0.96435613     0.74200
N1162       N  0.51260713  0.79063795  0.52360198    -0.25000
Co1163     Co  0.54199784  0.77041830  0.54479259     0.74100
C1164       C  0.58571924  0.86250643  0.59609735     0.43600
N1165       N  0.66251960  0.86419531  0.51430711     0.02000
N1166       N  0.57291000  0.81908330  0.56574690     0.02100
N1167       N  0.49052557  0.68718312  0.97626180    -0.45900
H1168       H  0.51998241  0.81859863  0.92073260     0.07900
N1169       N  0.51164813  0.78979721  0.98915549     0.02400
N1170       N  0.57143492  0.75060406  0.56546550     0.02100
C1171       C  0.58191847  0.71685104  0.59434597     0.43700
N1172       N  0.66040087  0.86345424  0.98390183    -0.24500
C1173       C  0.54805175  0.71924407  0.92234442    -0.05400
N1174       N  0.61118549  0.86132153  0.91846120    -0.45600
N1175       N  0.55562174  0.72164278  0.58248426    -0.45800
C1176       C  0.57824114  0.71950159  0.90715184     0.43500
N1177       N  0.51074036  0.72024417  0.98743271     0.02400
N1178       N  0.66082317  0.79421569  0.98270739    -0.24500
N1179       N  0.56453311  0.81598268  0.94117751    -0.25000
N1180       N  0.66159999  0.79342772  0.51358383     0.02000
H1181       H  0.68206095  0.77417042  0.94914102     0.07900
H1182       H  0.64507904  0.75418325  0.58790658     0.07900
N1183       N  0.51165168  0.72128187  0.52355650    -0.25000
N1184       N  0.60918490  0.83733668  0.56565273    -0.24700
N1185       N  0.59994428  0.76474505  0.93725619     0.02400
C1186       C  0.47773709  0.81267179  0.50739252     0.43800
C1187       C  0.67790847  0.89786189  0.97367805    -0.05900
N1188       N  0.60762385  0.76678565  0.56494180    -0.24700
H1189       H  0.64842143  0.88532671  0.59006969     0.07900
N1190       N  0.49187899  0.80399974  0.97954499    -0.45900
H1191       H  0.68031485  0.90497835  0.95075668     0.07900
C1192       C  0.69105268  0.76665757  0.49855045     0.43600
C1193       C  0.54922485  0.82988727  0.92390852    -0.05400
Co1194     Co  0.63166951  0.81479864  0.95999242     0.73800
N1195       N  0.68126878  0.89846127  0.52406683    -0.45600
C1196       C  0.47705254  0.66382818  0.50905987     0.43900
N1197       N  0.61002387  0.74860431  0.91717301    -0.45600
Co1198     Co  0.63664487  0.81607029  0.54013955     0.73900
C1199       C  0.61723030  0.74736093  0.58293403    -0.05900
C1200       C  0.49247882  0.80475083  0.53374460    -0.05500
N1201       N  0.56386533  0.74805766  0.94002358    -0.25000
N1202       N  0.55827442  0.83279840  0.58336792    -0.45800
H1203       H  0.48991297  0.68116952  0.55785113     0.07900
C1204       C  0.67951730  0.77865220  0.97210926    -0.05900
Cl1205     Cl  0.58577526  0.79176283  0.50450789    -0.48900
C1206       C  0.69086204  0.92126868  0.99966928     0.43600
H1207       H  0.51873250  0.70171460  0.91917132     0.07900
N1208       N  0.68093877  0.77826228  0.52265682    -0.45600
C1209       C  0.19901559  0.53166367  0.50735853     0.43500
N1210       N  0.22193062  0.49823974  0.51821645     0.02400
C1211       C  0.25431029  0.38539652  0.92099605    -0.05500
H1212       H  0.11548121  0.35990367  0.91795145     0.07900
C1213       C  0.10605884  0.32950939  0.53371714    -0.05800
Co1214     Co  0.23607964  0.46364877  0.95903091     0.74200
N1215       N  0.16645887  0.39772060  0.94001249    -0.25000
Co1216     Co  0.18727205  0.36913152  0.96447238     0.74100
C1217       C  0.08380548  0.31481184  0.00742776     0.43600
N1218       N  0.17364860  0.40902057  0.56796250     0.02000
N1219       N  0.13984771  0.34439176  0.99139822     0.02100
N1220       N  0.28283055  0.44713631  0.92098859    -0.45900
H1221       H  0.19853985  0.51784525  0.94840689     0.07900
N1222       N  0.18621379  0.43382714  0.93947339     0.02400
N1223       N  0.20983372  0.34352419  0.99019838     0.02100
C1224       C  0.23420184  0.31344226  0.50558660     0.43700
N1225       N  0.19430403  0.44485294  0.56500905    -0.24500
C1226       C  0.31987249  0.51196379  0.96735279    -0.05400
N1227       N  0.20989708  0.51881443  0.52980812    -0.45600
N1228       N  0.22454645  0.32403244  0.98062630    -0.45800
C1229       C  0.34561582  0.52562937  0.50323535     0.43500
N1230       N  0.25364452  0.43263197  0.93795167     0.02400
N1231       N  0.26064866  0.44163066  0.56404820    -0.24500
N1232       N  0.21788333  0.49445922  0.98077779    -0.25000
N1233       N  0.24193797  0.40577309  0.56741324     0.02000
H1234       H  0.30925197  0.48531381  0.58374947     0.07900
H1235       H  0.23004659  0.32492358  0.55464513     0.07900
N1236       N  0.23599344  0.39648885  0.93877610    -0.25000
N1237       N  0.14041147  0.34796797  0.52296401    -0.24700
N1238       N  0.28918258  0.49434845  0.51645963     0.02400
C1239       C  0.14083260  0.42276173  0.91176780     0.43800
C1240       C  0.18118823  0.46155168  0.58141626    -0.05900
N1241       N  0.20912014  0.34587978  0.52185159    -0.24700
H1242       H  0.09928823  0.32689417  0.55672207     0.07900
N1243       N  0.17225603  0.44931940  0.92310523    -0.45900
H1244       H  0.19347943  0.49089077  0.58378800     0.07900
C1245       C  0.28830722  0.42561441  0.59645436     0.43600
C1246       C  0.20283740  0.51393253  0.97109862    -0.05400
Co1247     Co  0.24175601  0.47003832  0.54103299     0.73800
N1248       N  0.14636044  0.40001306  0.58700999    -0.45600
C1249       C  0.28587894  0.41967328  0.90954861     0.43900
N1250       N  0.32302936  0.51315130  0.52661456    -0.45600
Co1251     Co  0.19060804  0.37598946  0.54565878     0.73900
C1252       C  0.22497555  0.32726763  0.53180167    -0.05900
C1253       C  0.13673867  0.38776284  0.92263820    -0.05500
N1254       N  0.28635551  0.49300085  0.97906241    -0.25000
N1255       N  0.10495043  0.32462447  0.98290723    -0.45800
H1256       H  0.24651784  0.35724713  0.91655426     0.07900
C1257       C  0.29031168  0.45628659  0.58094287    -0.05900
Cl1258     Cl  0.21419434  0.42100449  0.50544167    -0.48900
C1259       C  0.14975124  0.43229347  0.59612393     0.43600
H1260       H  0.32551182  0.51469668  0.94417927     0.07900
N1261       N  0.25745275  0.39473769  0.58734235    -0.45600
C1262       C  0.43326661  0.14599067  0.91186585     0.43500
N1263       N  0.41131035  0.16981234  0.94134235     0.02400
C1264       C  0.51653352  0.31648311  0.52351439    -0.05500
H1265       H  0.51809960  0.19434832  0.54828917     0.07900
C1266       C  0.39191900  0.13850829  0.57947534    -0.05800
Co1267     Co  0.47404395  0.23470628  0.96956660     0.74200
N1268       N  0.49500042  0.21218338  0.51492733    -0.25000
Co1269     Co  0.46760439  0.23345900  0.53694386     0.74100
C1270       C  0.42684950  0.14181284  0.58980087     0.43600
N1271       N  0.34517322  0.13811809  0.51137483     0.02000
N1272       N  0.43826700  0.18516850  0.55956925     0.02100
N1273       N  0.52013217  0.31557600  0.98277906    -0.45900
H1274       H  0.49240438  0.18529204  0.92680492     0.07900
N1275       N  0.49866189  0.21223685  0.99412407     0.02400
N1276       N  0.43939241  0.25387966  0.55846949     0.02100
C1277       C  0.43025098  0.28760050  0.58836315     0.43700
N1278       N  0.34907476  0.13958654  0.98521714    -0.24500
C1279       C  0.46579019  0.28525252  0.92798827    -0.05400
N1280       N  0.40157749  0.14439167  0.92061421    -0.45600
N1281       N  0.45601597  0.28327043  0.57493281    -0.45800
C1282       C  0.43664705  0.28522041  0.91141206     0.43500
N1283       N  0.50027796  0.28221447  0.99350746     0.02400
N1284       N  0.35039008  0.20978789  0.98508885    -0.24500
N1285       N  0.44715819  0.18778816  0.94562070    -0.25000
N1286       N  0.34623191  0.20879463  0.51097378     0.02000
H1287       H  0.33006133  0.23080275  0.95147476     0.07900
H1288       H  0.36685319  0.24899064  0.58495411     0.07900
N1289       N  0.49659770  0.28195552  0.51398075    -0.25000
N1290       N  0.40199659  0.16668152  0.56051887    -0.24700
N1291       N  0.41295693  0.23974759  0.94120513     0.02400
C1292       C  0.52648430  0.18645987  0.49933702     0.43800
C1293       C  0.33092026  0.10534735  0.97447802    -0.05900
N1294       N  0.40320646  0.23704985  0.55976476    -0.24700
H1295       H  0.36397064  0.11884297  0.58570350     0.07900
N1296       N  0.51847804  0.19834564  0.98421102    -0.45900
H1297       H  0.32962998  0.09844129  0.95156109     0.07900
C1298       C  0.31602575  0.23534616  0.49758646     0.43600
C1299       C  0.46304992  0.17427510  0.92870334    -0.05400
Co1300     Co  0.37978294  0.18922189  0.96263341     0.73800
N1301       N  0.32681517  0.10400180  0.52152239    -0.45600
C1302       C  0.52956352  0.33866872  0.49688684     0.43900
N1303       N  0.40422054  0.25614184  0.92039412    -0.45600
Co1304     Co  0.37283240  0.18700985  0.53623716     0.73900
C1305       C  0.39444484  0.25642679  0.57846619    -0.05900
C1306       C  0.51374644  0.19689979  0.52534523    -0.05500
N1307       N  0.44881765  0.25614831  0.94521424    -0.25000
N1308       N  0.45380118  0.17154158  0.57652392    -0.45800
H1309       H  0.52150876  0.32446070  0.54627794     0.07900
C1310       C  0.33211921  0.22573907  0.97439765    -0.05900
Cl1311     Cl  0.42130268  0.21047213  0.49853814    -0.48900
C1312       C  0.31604511  0.08132682  0.00007884     0.43600
H1313       H  0.49528293  0.30238215  0.92564573     0.07900
N1314       N  0.32770691  0.22426726  0.52105297    -0.45600
C1315       C  0.28625216  0.26408017  0.52670979     0.24600
C1316       C  0.29473554  0.25500463  0.49926746    -0.23500
C1317       C  0.28263512  0.26504248  0.47391102     0.19500
C1318       C  0.26294642  0.28369106  0.47604635     0.24600
C1319       C  0.25461177  0.29289045  0.50354678    -0.23400
C1320       C  0.26646116  0.28253253  0.52884638     0.19500
F1321       F  0.25911587  0.29002662  0.55601585    -0.13400
F1322       F  0.29722946  0.25527364  0.55186062    -0.15700
F1323       F  0.23790631  0.27436741  0.95399065    -0.15700
F1324       F  0.27440446  0.23705894  0.95201586    -0.13400
C1325       C  0.40544407  0.57167184  0.48007685     0.24600
C1326       C  0.38386963  0.55607213  0.50526125    -0.23500
C1327       C  0.39748385  0.57289265  0.53255913     0.19500
C1328       C  0.42910926  0.60704719  0.53415529     0.24600
C1329       C  0.44831390  0.62485871  0.50850231    -0.23400
C1330       C  0.43742520  0.60591508  0.48169255     0.19500
F1331       F  0.45677582  0.62114032  0.45675758    -0.13400
F1332       F  0.39520026  0.55467508  0.45371485    -0.15700
F1333       F  0.43887710  0.62327444  0.56078869    -0.15700
F1334       F  0.37891082  0.55772678  0.55780091    -0.13400
C1335       C  0.27678310  0.98408281  0.52720547     0.24600
C1336       C  0.25914256  0.96175478  0.00269534    -0.23500
C1337       C  0.26142742  0.98043284  0.97648137     0.19500
C1338       C  0.27935703  0.01895443  0.97561104     0.24600
C1339       C  0.29575171  0.04017392  0.00095487    -0.23400
C1340       C  0.29420116  0.02240568  0.52572035     0.19500
F1341       F  0.31038401  0.04206968  0.55029411    -0.13400
F1342       F  0.27771552  0.96896214  0.55313336    -0.15700
F1343       F  0.27986738  0.03519744  0.94985520    -0.15700
F1344       F  0.24599484  0.96145926  0.95148755    -0.13400
C1345       C  0.16601178  0.59713279  0.48914297     0.24600
C1346       C  0.18201061  0.62248635  0.51208103    -0.23500
C1347       C  0.19795689  0.61429633  0.53583455     0.19500
C1348       C  0.20155464  0.58339267  0.53499030     0.24600
C1349       C  0.18924403  0.56020983  0.51043071    -0.23400
C1350       C  0.16977989  0.56620966  0.48824922     0.19500
F1351       F  0.15839061  0.54479421  0.95226072    -0.13400
F1352       F  0.14768978  0.60277685  0.46717139    -0.15700
F1353       F  0.21965198  0.57790684  0.55726754    -0.15700
F1354       F  0.21280087  0.63752444  0.55889930    -0.13400
C1355       C  0.40434424  0.82755306  0.97466331     0.24600
C1356       C  0.37733808  0.81362014  0.50075705    -0.23500
C1357       C  0.39664078  0.82297612  0.52749635     0.19500
C1358       C  0.43083769  0.82540878  0.52951227     0.24600
C1359       C  0.44618960  0.81843768  0.50481007    -0.23400
C1360       C  0.43868760  0.83008813  0.97675763     0.19500
F1361       F  0.46057655  0.83987323  0.95267926    -0.13400
F1362       F  0.39409979  0.83536921  0.94873132    -0.15700
F1363       F  0.44809330  0.83343746  0.55583678    -0.15700
F1364       F  0.38184120  0.82831499  0.55208444    -0.13400
C1365       C  0.72387583  0.01816522  0.52580703     0.24600
C1366       C  0.74754615  0.04025882  0.00468958    -0.23500
C1367       C  0.73359320  0.02219572  0.97783869     0.19500
C1368       C  0.71523292  0.98383422  0.97607342     0.24600
C1369       C  0.71039499  0.96223980  0.00117162    -0.23400
C1370       C  0.70703480  0.97981264  0.52544081     0.19500
F1371       F  0.68622370  0.96049220  0.54873994    -0.13400
F1372       F  0.71799344  0.03413674  0.54933344    -0.15700
F1373       F  0.70178327  0.96824834  0.94963771    -0.15700
F1374       F  0.73714346  0.04158512  0.95310673    -0.13400
C1375       C  0.98310706  0.26153195  0.98283201     0.24600
C1376       C  0.96168199  0.25243391  0.50617439    -0.23500
C1377       C  0.98135045  0.25552357  0.53208381     0.19500
C1378       C  0.01998086  0.27547876  0.53262930     0.24600
C1379       C  0.04048770  0.29314113  0.50728327    -0.23400
C1380       C  0.02180224  0.28142767  0.98212505     0.19500
F1381       F  0.03887424  0.28940746  0.95569954    -0.13400
F1382       F  0.96461236  0.25116714  0.95703378    -0.15700
F1383       F  0.03705104  0.27657131  0.55811700    -0.15700
F1384       F  0.96346274  0.23856718  0.55708435    -0.13400
C1385       C  0.60926935  0.18140428  0.97785902     0.24600
C1386       C  0.62593951  0.18465960  0.49487634    -0.23500
C1387       C  0.60769299  0.17832115  0.52190116     0.19500
C1388       C  0.57307256  0.17479365  0.52331888     0.24600
C1389       C  0.55639271  0.17811899  0.49773775    -0.23400
C1390       C  0.57490176  0.17848684  0.97937261     0.19500
F1391       F  0.55738486  0.17686627  0.95394026    -0.13400
F1392       F  0.62330225  0.18210796  0.95101813    -0.15700
F1393       F  0.55710909  0.16996181  0.54997387    -0.15700
F1394       F  0.62406886  0.17763293  0.54731198    -0.13400
C1395       C  0.98455093  0.72458252  0.48316460     0.24600
C1396       C  0.96465683  0.70400655  0.50781634    -0.23500
C1397       C  0.98461170  0.70373796  0.53250704     0.19500
C1398       C  0.02315927  0.72433454  0.53293613     0.24600
C1399       C  0.04306090  0.74582313  0.50865757    -0.23400
C1400       C  0.02319583  0.74523550  0.48359539     0.19500
F1401       F  0.04108488  0.76515237  0.45952780    -0.13400
F1402       F  0.96710086  0.72899007  0.96016879    -0.15700
F1403       F  0.04082079  0.72202430  0.55697143    -0.15700
F1404       F  0.96709126  0.68258049  0.55611384    -0.13400
C1405       C  0.73272362  0.74812234  0.52376168     0.24600
C1406       C  0.71263249  0.74712365  0.49874054    -0.23500
C1407       C  0.71342620  0.72715298  0.47417594     0.19500
C1408       C  0.73337021  0.70858757  0.47480829     0.24600
C1409       C  0.75285282  0.70907921  0.50004201    -0.23400
C1410       C  0.75256085  0.72950662  0.52438985     0.19500
F1411       F  0.77221099  0.73233550  0.54880022    -0.13400
F1412       F  0.73369576  0.76761973  0.54771305    -0.15700
F1413       F  0.76485120  0.71919060  0.95159090    -0.15700
F1414       F  0.72960552  0.75759311  0.94816536    -0.13400
C1415       C  0.81493414  0.39008970  0.52964089     0.24600
C1416       C  0.82737710  0.38006106  0.50463966    -0.23500
C1417       C  0.84445051  0.40545526  0.98850291     0.19500
C1418       C  0.84197714  0.43712969  0.98777915     0.24600
C1419       C  0.82345719  0.44419383  0.50442759    -0.23400
C1420       C  0.81286885  0.42183412  0.52948087     0.19500
F1421       F  0.79764898  0.42882557  0.55303109    -0.13400
F1422       F  0.80173833  0.36783526  0.55343659    -0.15700
F1423       F  0.85666841  0.46035223  0.96471793    -0.15700
F1424       F  0.86142819  0.39871484  0.96611974    -0.13400
C1425       C  0.57167092  0.40021462  0.51900582     0.24600
C1426       C  0.55814998  0.37757559  0.49418049    -0.23500
C1427       C  0.57690430  0.39174845  0.97595657     0.19500
C1428       C  0.60948793  0.42518001  0.97425818     0.24600
C1429       C  0.62391002  0.44512063  0.49077891    -0.23400
C1430       C  0.60438252  0.43367485  0.51731614     0.19500
F1431       F  0.61793189  0.45382273  0.54210964    -0.13400
F1432       F  0.55437002  0.38963611  0.54524908    -0.15700
F1433       F  0.62531075  0.43639564  0.94756646    -0.15700
F1434       F  0.56309422  0.37226694  0.95087624    -0.13400
C1435       C  0.42732582  0.33987321  0.65546881     0.24600
C1436       C  0.46523352  0.36527930  0.65977978    -0.23500
C1437       C  0.49051313  0.36604852  0.63949457     0.19500
C1438       C  0.47855090  0.34200793  0.61577144     0.24600
C1439       C  0.44084111  0.31556295  0.61191669    -0.23400
C1440       C  0.41531260  0.31519737  0.63186107     0.19500
F1441       F  0.37887830  0.29064118  0.62901225    -0.13400
F1442       F  0.40169961  0.33820664  0.67445142    -0.15700
F1443       F  0.50450942  0.34480548  0.59662334    -0.15700
F1444       F  0.52702429  0.39038935  0.64217880    -0.13400
C1445       C  0.43574887  0.35318295  0.85862458     0.24600
C1446       C  0.46761795  0.36272767  0.84195069    -0.23500
C1447       C  0.48603218  0.34317678  0.84597028     0.19500
C1448       C  0.47387853  0.31575941  0.86714761     0.24600
C1449       C  0.44344488  0.30780264  0.88508806    -0.23400
C1450       C  0.42381237  0.32590923  0.88011394     0.19500
F1451       F  0.39446243  0.31871144  0.89712174    -0.13400
F1452       F  0.41691481  0.37121085  0.85491318    -0.15700
F1453       F  0.49212907  0.29704107  0.87017837    -0.15700
F1454       F  0.51534721  0.34996734  0.82908361    -0.13400
C1455       C  0.62640600  0.52144901  0.63388593     0.24600
C1456       C  0.63782957  0.54512178  0.65792248    -0.23500
C1457       C  0.67061926  0.57928765  0.65610495     0.19500
C1458       C  0.69279076  0.58871147  0.63115300     0.24600
C1459       C  0.68229699  0.56423773  0.60755484    -0.23400
C1460       C  0.64796426  0.53127452  0.60865089     0.19500
F1461       F  0.63505993  0.50835537  0.58529338    -0.13400
F1462       F  0.59395470  0.48919990  0.63455410    -0.15700
F1463       F  0.72518901  0.62095320  0.63070717    -0.15700
F1464       F  0.68209515  0.60294871  0.67903474    -0.13400
C1465       C  0.64098994  0.52164592  0.86441310     0.24600
C1466       C  0.64687457  0.54644271  0.84190521    -0.23500
C1467       C  0.67774597  0.58223907  0.84335187     0.19500
C1468       C  0.70235321  0.59287646  0.86691185     0.24600
C1469       C  0.69644127  0.56798660  0.88948694    -0.23400
C1470       C  0.66519625  0.53235377  0.88808755     0.19500
F1471       F  0.65774612  0.50762036  0.90980906    -0.13400
F1472       F  0.61113492  0.48731975  0.86399116    -0.15700
F1473       F  0.73254532  0.62694058  0.86695151    -0.15700
F1474       F  0.68492535  0.60669174  0.82145017    -0.13400
C1475       C  0.52346211  0.63445322  0.64259668     0.24600
C1476       C  0.54885406  0.63554073  0.66290948    -0.23500
C1477       C  0.58645319  0.66255572  0.65951762     0.19500
C1478       C  0.59797064  0.68852810  0.63678881     0.24600
C1479       C  0.57224639  0.68778041  0.61682912    -0.23400
C1480       C  0.53494916  0.65980017  0.61978895     0.19500
F1481       F  0.50893889  0.65666588  0.60056732    -0.13400
F1482       F  0.48732673  0.60845431  0.64431944    -0.15700
F1483       F  0.63397077  0.71486862  0.63496013    -0.15700
F1484       F  0.61212879  0.66456200  0.67863065    -0.13400
C1485       C  0.59157222  0.67620272  0.87953085     0.24600
C1486       C  0.57299603  0.69585641  0.88167724    -0.23500
C1487       C  0.54407373  0.68792114  0.86202040     0.19500
C1488       C  0.53202653  0.65904783  0.84214456     0.24600
C1489       C  0.54905733  0.63785523  0.84109512    -0.23400
C1490       C  0.57981344  0.64747602  0.85923842     0.19500
F1491       F  0.59748353  0.62803434  0.85822720    -0.13400
F1492       F  0.61948022  0.68326054  0.89821831    -0.15700
F1493       F  0.50406263  0.65230459  0.82363307    -0.15700
F1494       F  0.52695161  0.70791319  0.86234178    -0.13400
C1495       C  0.32992015  0.41057868  0.62457633     0.24600
C1496       C  0.31131421  0.43012107  0.62221128    -0.23500
C1497       C  0.31997402  0.45918095  0.64180446     0.19500
C1498       C  0.34792851  0.46964964  0.66246991     0.24600
C1499       C  0.36761431  0.45107265  0.66423584    -0.23400
C1500       C  0.35800031  0.42102187  0.64533135     0.19500
F1501       F  0.37691244  0.40280789  0.64580237    -0.13400
F1502       F  0.32259100  0.38298954  0.60558495    -0.15700
F1503       F  0.35553513  0.49787975  0.68084078    -0.15700
F1504       F  0.30163797  0.47797340  0.64066685    -0.13400
C1505       C  0.37314863  0.47268017  0.86541102     0.24600
C1506       C  0.36699655  0.44919548  0.84183623    -0.23500
C1507       C  0.33470894  0.41433082  0.84142733     0.19500
C1508       C  0.30874818  0.40351537  0.86409159     0.24600
C1509       C  0.31479360  0.42727903  0.88758226    -0.23400
C1510       C  0.34761045  0.46175462  0.88816505     0.19500
F1511       F  0.35511023  0.48520169  0.91088624    -0.13400
F1512       F  0.40438601  0.50595150  0.86680502    -0.15700
F1513       F  0.27704422  0.37073447  0.86225285    -0.15700
F1514       F  0.32745354  0.39127335  0.81845898    -0.13400
C1515       C  0.86147348  0.51442767  0.65893262     0.24600
C1516       C  0.89986020  0.53255452  0.66152056    -0.23500
C1517       C  0.92141607  0.56396850  0.64417183     0.19500
C1518       C  0.90486564  0.57621992  0.62392193     0.24600
C1519       C  0.86653575  0.55734666  0.62077417    -0.23400
C1520       C  0.84500241  0.52684316  0.63898170     0.19500
F1521       F  0.80769436  0.50880824  0.63745996    -0.13400
F1522       F  0.83968674  0.48518501  0.67615716    -0.15700
F1523       F  0.92633460  0.60518152  0.60633405    -0.15700
F1524       F  0.95866873  0.58211419  0.64610076    -0.13400
C1525       C  0.87521787  0.52725592  0.89053921     0.24600
C1526       C  0.88270066  0.56392233  0.89187296    -0.23500
C1527       C  0.90194950  0.58763858  0.86865082     0.19500
C1528       C  0.91285457  0.57478555  0.84452051     0.24600
C1529       C  0.90447229  0.53785937  0.84305789    -0.23400
C1530       C  0.88554522  0.51435897  0.86634448     0.19500
F1531       F  0.87769013  0.47898950  0.86618153    -0.13400
F1532       F  0.85755868  0.50336741  0.91274618    -0.15700
F1533       F  0.93082884  0.59837392  0.82219324    -0.15700
F1534       F  0.90915975  0.62278621  0.86870108    -0.13400
C1535       C  0.89571532  0.30249391  0.63728135     0.24600
C1536       C  0.88146796  0.31240889  0.61347496    -0.23500
C1537       C  0.88469965  0.34738744  0.61332667     0.19500
C1538       C  0.89836442  0.37029978  0.63763922     0.24600
C1539       C  0.91055686  0.35953481  0.66206604    -0.23400
C1540       C  0.91049084  0.32609773  0.66137062     0.19500
F1541       F  0.92322550  0.31554577  0.68452620    -0.13400
F1542       F  0.89377636  0.26941986  0.63788080    -0.15700
F1543       F  0.90052578  0.40349063  0.63703217    -0.15700
F1544       F  0.87457862  0.35961967  0.58959750    -0.13400
C1545       C  0.91432669  0.32915176  0.84558501     0.24600
C1546       C  0.91175362  0.36121105  0.84495794    -0.23500
C1547       C  0.89787042  0.37022264  0.86934328     0.19500
C1548       C  0.88666722  0.34761712  0.89399317     0.24600
C1549       C  0.88830829  0.31497726  0.89449358    -0.23400
C1550       C  0.90251386  0.30610028  0.87011079     0.19500
F1551       F  0.90337660  0.27441726  0.86933845    -0.13400
F1552       F  0.92710229  0.31940477  0.82199367    -0.15700
F1553       F  0.87381803  0.35760714  0.91740551    -0.15700
F1554       F  0.89613290  0.40147640  0.86966193    -0.13400
C1555       C  0.13422653  0.48020264  0.65929485     0.24600
C1556       C  0.09586703  0.46088835  0.66196242    -0.23500
C1557       C  0.07501033  0.42955567  0.64434364     0.19500
C1558       C  0.09239783  0.41869975  0.62366693     0.24600
C1559       C  0.13079481  0.43872722  0.62067036    -0.23400
C1560       C  0.15147745  0.46900467  0.63924139     0.19500
F1561       F  0.18881343  0.48788688  0.63826420    -0.13400
F1562       F  0.15540324  0.50938246  0.67674498    -0.15700
F1563       F  0.07171927  0.38979503  0.60579362    -0.15700
F1564       F  0.03775211  0.41010255  0.64653034    -0.13400
C1565       C  0.12693035  0.46826434  0.88945412     0.24600
C1566       C  0.12067301  0.43204327  0.88996051    -0.23500
C1567       C  0.09931986  0.40779468  0.86771598     0.19500
C1568       C  0.08548195  0.41989675  0.84504733     0.24600
C1569       C  0.09312454  0.45663139  0.84409834    -0.23400
C1570       C  0.11368361  0.48045577  0.86671775     0.19500
F1571       F  0.12056141  0.51550111  0.86723973    -0.13400
F1572       F  0.14640333  0.49242993  0.91097921    -0.15700
F1573       F  0.06564264  0.39587399  0.82348017    -0.15700
F1574       F  0.09321642  0.37303148  0.86708239    -0.13400
C1575       C  0.13175653  0.65927735  0.66493356     0.24600
C1576       C  0.09317842  0.63966628  0.66581523    -0.23500
C1577       C  0.07357097  0.65025021  0.64683813     0.19500
C1578       C  0.09220572  0.67913747  0.62693163     0.24600
C1579       C  0.13063416  0.69778018  0.62551406    -0.23400
C1580       C  0.15025657  0.68810236  0.64512853     0.19500
F1581       F  0.18762082  0.70623122  0.64477974    -0.13400
F1582       F  0.15172971  0.65065699  0.68322310    -0.15700
F1583       F  0.07263653  0.68711555  0.60767945    -0.15700
F1584       F  0.03627829  0.63149333  0.64631372    -0.13400
C1585       C  0.12381192  0.65607539  0.88665168     0.24600
C1586       C  0.11811345  0.68623819  0.88942823    -0.23500
C1587       C  0.09536209  0.69006316  0.86896913     0.19500
C1588       C  0.07943913  0.66479779  0.84594654     0.24600
C1589       C  0.08617501  0.63533740  0.84289341    -0.23400
C1590       C  0.10838424  0.63130043  0.86357596     0.19500
F1591       F  0.11481845  0.60290926  0.86178691    -0.13400
F1592       F  0.14468221  0.65038110  0.90624927    -0.15700
F1593       F  0.05874495  0.67025241  0.82601631    -0.15700
F1594       F  0.08956406  0.71885365  0.87046016    -0.13400
C1595       C  0.38430178  0.90094356  0.63260575     0.24600
C1596       C  0.37472404  0.91146156  0.65862303    -0.23500
C1597       C  0.34082945  0.91067162  0.66033095     0.19500
C1598       C  0.31584554  0.89715570  0.63698139     0.24600
C1599       C  0.32477933  0.88499180  0.61140733    -0.23400
C1600       C  0.35986674  0.88848938  0.60902591     0.19500
F1601       F  0.37044200  0.87944363  0.58381550    -0.13400
F1602       F  0.41763508  0.90349748  0.62975497    -0.15700
F1603       F  0.28229722  0.89404145  0.64006521    -0.15700
F1604       F  0.33119773  0.92150371  0.68513357    -0.13400
C1605       C  0.31635630  0.90150165  0.86761834     0.24600
C1606       C  0.31688091  0.87606486  0.88704949    -0.23500
C1607       C  0.34458226  0.86666080  0.88367723     0.19500
C1608       C  0.37054346  0.88176243  0.86131771     0.24600
C1609       C  0.36984593  0.90685910  0.84167029    -0.23400
C1610       C  0.34256524  0.91677791  0.84516188     0.19500
F1611       F  0.34051276  0.94061796  0.82638578    -0.13400
F1612       F  0.28993453  0.91081148  0.86964830    -0.15700
F1613       F  0.39664962  0.87199512  0.85937003    -0.15700
F1614       F  0.34681330  0.84253320  0.90199617    -0.13400
C1615       C  0.54178025  0.87688885  0.62125410     0.24600
C1616       C  0.57777546  0.88229557  0.61925955    -0.23500
C1617       C  0.60361716  0.90362831  0.64075316     0.19500
C1618       C  0.59367943  0.91925261  0.66356685     0.24600
C1619       C  0.55760603  0.91353767  0.66540196    -0.23400
C1620       C  0.53181390  0.89193286  0.64416302     0.19500
F1621       F  0.49697034  0.88601970  0.64509296    -0.13400
F1622       F  0.51578023  0.85697623  0.60087767    -0.15700
F1623       F  0.61905145  0.93879509  0.68443862    -0.15700
F1624       F  0.63797827  0.90832826  0.64040014    -0.13400
C1625       C  0.58227914  0.93502801  0.86281639     0.24600
C1626       C  0.55365181  0.91456579  0.84262763    -0.23500
C1627       C  0.53669211  0.87621493  0.84277073     0.19500
C1628       C  0.54749970  0.85863616  0.86299494     0.24600
C1629       C  0.57521807  0.87898340  0.88374477    -0.23400
C1630       C  0.59303910  0.91730461  0.88313079     0.19500
F1631       F  0.61916974  0.93743054  0.90336232    -0.13400
F1632       F  0.59870451  0.97211859  0.86391879    -0.15700
F1633       F  0.53043415  0.82145250  0.86253645    -0.15700
F1634       F  0.50982846  0.85563574  0.82317868    -0.13400
C1635       C  0.66326872  0.08801360  0.65387827     0.24600
C1636       C  0.63158112  0.09137476  0.65523394    -0.23500
C1637       C  0.62212617  0.10514366  0.63095959     0.19500
C1638       C  0.64531774  0.11783862  0.60662965     0.24600
C1639       C  0.67909299  0.11821633  0.60656412    -0.23400
C1640       C  0.68701307  0.10163639  0.62982376     0.19500
F1641       F  0.71865775  0.10046623  0.63013448    -0.13400
F1642       F  0.67235688  0.07323323  0.67650841    -0.15700
F1643       F  0.63474110  0.13010425  0.58322311    -0.15700
F1644       F  0.59026126  0.10593234  0.63057028    -0.13400
C1645       C  0.66320153  0.13774555  0.88884221     0.24600
C1646       C  0.69296809  0.13112454  0.89036925    -0.23500
C1647       C  0.69652375  0.11014766  0.86819049     0.19500
C1648       C  0.67111576  0.09634392  0.84503994     0.24600
C1649       C  0.64165224  0.10339890  0.84342262    -0.23400
C1650       C  0.63806973  0.12425885  0.86562626     0.19500
F1651       F  0.60969444  0.13090752  0.86539574    -0.13400
F1652       F  0.65807341  0.15724077  0.91003041    -0.15700
F1653       F  0.67606350  0.07685152  0.82371503    -0.15700
F1654       F  0.72525111  0.10405499  0.86820360    -0.13400
C1655       C  0.42334572  0.09300925  0.66094012     0.24600
C1656       C  0.45734703  0.09392571  0.66018414    -0.23500
C1657       C  0.47995985  0.10883464  0.63556075     0.19500
C1658       C  0.46893413  0.12266350  0.61220770     0.24600
C1659       C  0.43519083  0.12237864  0.61308817    -0.23400
C1660       C  0.41244844  0.10722865  0.63769057     0.19500
F1661       F  0.38053495  0.10769629  0.63994034    -0.13400
F1662       F  0.40116172  0.07953219  0.68475222    -0.15700
F1663       F  0.49134031  0.13620494  0.58851611    -0.15700
F1664       F  0.51226774  0.10903115  0.63369428    -0.13400
C1665       C  0.47106783  0.14892710  0.86882226     0.24600
C1666       C  0.43891669  0.12887274  0.88576186    -0.23500
C1667       C  0.41523306  0.09178083  0.87954508     0.19500
C1668       C  0.42450167  0.07443379  0.85782675     0.24600
C1669       C  0.45750339  0.09425349  0.84156585    -0.23400
C1670       C  0.48041245  0.13175069  0.84725119     0.19500
F1671       F  0.51199485  0.15207973  0.83191281    -0.13400
F1672       F  0.49364105  0.18549572  0.87291326    -0.15700
F1673       F  0.40175369  0.03793377  0.85384666    -0.15700
F1674       F  0.38409328  0.07187965  0.89549472    -0.13400
loop_ 
_geom_bond_atom_site_label_1 
_geom_bond_atom_site_label_2 
_geom_bond_distance 
_geom_bond_site_symmetry_2 
_ccdc_geom_bond_type 
C1           N19   1.358       .  A
C1           C38   1.446       .  S
C1          C832   1.473       .  S
N2           N19   1.328       .  A
N2           N24   1.319       .  A
N2          Co39   2.109       .  S
C3           N28   1.348       .  A
C3           C41   1.473       .  S
C3           H48   1.082       .  S
H4           C45   1.081       .  S
C5           N29   1.334       .  A
C5            C9   1.454       .  S
C5           H34   1.080       .  S
Co6          N24   2.049   1_565  S
Co6          N14   2.052       .  S
Co6          N46   2.058   1_565  S
Co6          N22   2.046       .  S
Co6         Cl50   2.423       .  S
N7           C45   1.346       .  A
N7           N14   1.319       .  A
N7           Co8   2.110       .  S
Co8          N11   2.110       .  S
Co8          N28   2.111       .  S
Co8          N15   2.117       .  S
Co8         Cl50   2.474       .  S
C9           N47   1.360       .  A
C9          C789   1.488       .  S
N10          N17   1.319       .  A
N10          N40   1.317       .  A
N10         Co43   2.052       .  S
N11          N29   1.318       .  A
N11          N47   1.328       .  A
N12          C41   1.337       .  A
N12          N22   1.317       .  A
H13          C38   1.081       .  S
N14          N35   1.319       .  A
N15          N33   1.318       .  A
N15          N20   1.330       .  A
C16          N20   1.361       .  A
C16          C44   1.452       .  S
C16         C782   1.489       .  S
N17          C32   1.351       .  A
N17         Co39   2.119       .  S
C18          N46   1.333       .  A
C18          C21   1.447       .  S
C18          H52   1.081       .  S
C21          N42   1.359       .  A
C21         C819   1.479       .  S
N22          N28   1.320       .  A
N23          C49   1.349       .  A
N23          N25   1.320       .  A
N23         Co39   2.111       .  S
N24          C38   1.332       .  A
N25          N53   1.317       .  A
N25         Co43   2.048       .  S
H26          C49   1.082       .  S
H27          C44   1.080       .  S
N29         Co43   2.057   1_565  S
N30          N42   1.330       .  A
N30          N46   1.319       .  A
N30         Co39   2.113       .  S
C31          N35   1.342       .  A
C31          C45   1.475       .  S
C31         C772   1.484       .  S
C32          C51   1.478       .  S
C32          H36   1.081       .  S
N33          C44   1.335       .  A
N33         Co43   2.059   1_565  S
C37          N53   1.338       .  A
C37          C49   1.472       .  S
C37         C799   1.472       .  S
Co39        Cl50   2.476   1_545  S
N40          C51   1.340       .  A
C41         C759   1.471       .  S
Co43        Cl50   2.421   1_545  S
C51         C812   1.485       .  S
C54          N72   1.360       .  A
C54          C91   1.445       .  S
C54         C752   1.476       .  S
N55          N72   1.329       .  A
N55          N77   1.319       .  A
N55         Co92   2.112       .  S
C56          N81   1.347       .  A
C56          C94   1.472       .  S
C56         H101   1.081       .  S
H57          C98   1.081       .  S
C58          N82   1.332       .  A
C58          C62   1.445       .  S
C58          H87   1.080       .  S
Co59         N77   2.051       .  S
Co59         N67   2.057   1_455  S
Co59         N99   2.046       .  S
Co59         N75   2.057   1_455  S
Co59       Cl103   2.418       .  S
N60          C98   1.348       .  A
N60          N67   1.319       .  A
N60         Co61   2.117       .  S
Co61         N64   2.119       .  S
Co61         N81   2.109       .  S
Co61         N68   2.113       .  S
Co61       Cl103   2.475   1_655  S
C62         N100   1.361       .  A
C62         C709   1.478       .  S
N63          N70   1.319       .  A
N63          N93   1.317       .  A
N63         Co96   2.048       .  S
N64          N82   1.319       .  A
N64         N100   1.330       .  A
N65          C94   1.342       .  A
N65          N75   1.321       .  A
H66          C91   1.081       .  S
N67          N88   1.320       .  A
N68          N86   1.320       .  A
N68          N73   1.328       .  A
C69          N73   1.357       .  A
C69          C97   1.443       .  S
C69         C702   1.468       .  S
N70          C85   1.349       .  A
N70         Co92   2.110       .  S
C71          N99   1.329       .  A
C71          C74   1.444       .  S
C71         H105   1.082       .  S
C74          N95   1.357       .  A
C74         C739   1.469       .  S
N75          N81   1.319       .  A
N76         C102   1.346       .  A
N76          N78   1.319       .  A
N76         Co92   2.110       .  S
N77          C91   1.331       .  A
N78         N106   1.319       .  A
N78         Co96   2.051       .  S
H79         C102   1.081       .  S
H80          C97   1.081       .  S
N82         Co96   2.046   1_655  S
N83          N95   1.329       .  A
N83          N99   1.319       .  A
N83         Co92   2.105       .  S
C84          N88   1.341       .  A
C84          C98   1.480       .  S
C84         C692   1.491       .  S
C85         C104   1.475       .  S
C85          H89   1.081       .  S
N86          C97   1.333       .  A
N86         Co96   2.048   1_655  S
C90         N106   1.341       .  A
C90         C102   1.474       .  S
C90         C719   1.479       .  S
Co92       Cl103   2.479       .  S
N93         C104   1.338       .  A
C94         C679   1.477       .  S
Co96       Cl103   2.422       .  S
C104        C732   1.477       .  S
C107        N125   1.362       .  A
C107        C144   1.445       .  S
C107        C669   1.482       .  S
N108        N125   1.331       .  A
N108        N130   1.319       .  A
N108       Co145   2.122       .  S
C109        N134   1.348       .  A
C109        C147   1.479       .  S
C109        H154   1.080       .  S
H110        C151   1.081       .  S
C111        N135   1.331       .  A
C111        C115   1.450       .  S
C111        H140   1.079       .  S
Co112       N130   2.047       .  S
Co112       N120   2.052       .  S
Co112       N152   2.043       .  S
Co112       N128   2.055       .  S
Co112      Cl156   2.416       .  S
N113        C151   1.347       .  A
N113        N120   1.319       .  A
N113       Co114   2.109       .  S
Co114       N117   2.114       .  S
Co114       N134   2.111       .  S
Co114       N121   2.110       .  S
Co114      Cl156   2.477       .  S
C115        N153   1.360       .  A
C115        C629   1.483       .  S
N116        N123   1.319       .  A
N116        N146   1.318       .  A
N116       Co149   2.052       .  S
N117        N135   1.318       .  A
N117        N153   1.329       .  A
N118        C147   1.341       .  A
N118        N128   1.319       .  A
H119        C144   1.081       .  S
N120        N141   1.319       .  A
N121        N139   1.319       .  A
N121        N126   1.328       .  A
C122        N126   1.358       .  A
C122        C150   1.446       .  S
C122        C619   1.475       .  S
N123        C138   1.346       .  A
N123       Co145   2.101       .  S
C124        N152   1.329       .  A
C124        C127   1.444       .  S
C124        H158   1.082       .  S
C127        N148   1.358       .  A
C127        C662   1.470       .  S
N128        N134   1.318       .  A
N129        C155   1.350       .  A
N129        N131   1.320       .  A
N129       Co145   2.118       .  S
N130        C144   1.331       .  A
N131        N159   1.319       .  A
N131       Co149   2.057       .  S
H132        C155   1.081       .  S
H133        C150   1.081       .  S
N135       Co149   2.051       .  S
N136        N148   1.328       .  A
N136        N152   1.318       .  A
N136       Co145   2.102       .  S
C137        N141   1.339       .  A
C137        C151   1.471       .  S
C137        C609   1.471       .  S
C138        C157   1.471       .  S
C138        H142   1.081       .  S
N139        C150   1.333       .  A
N139       Co149   2.054       .  S
C143        N159   1.341       .  A
C143        C155   1.477       .  S
C143        C639   1.485       .  S
Co145      Cl156   2.478       .  S
N146        C157   1.340       .  A
C147        C599   1.489       .  S
Co149      Cl156   2.419       .  S
C157        C652   1.472       .  S
C160        N178   1.345       .  A
C160        C582   1.462       .  S
C160       C1034   1.459   1_554  S
N161        N178   1.317       .  A
N161       N1020   1.312   1_554  A
N161       Co198   2.049       .  S
C162        N187   1.353       .  A
C162        C200   1.478       .  S
C162        H207   1.081       .  S
H163        C204   1.081       .  S
C164        N188   1.342       .  A
C164       C1005   1.466       .  S
C164        H193   1.080       .  S
Co165       N183   2.057       .  S
Co165       N173   2.032       .  S
Co165       N205   2.054       .  S
Co165       N181   2.035       .  S
Co165     Cl1046   2.427       .  S
N166        C204   1.359       .  A
N166        N173   1.318       .  A
N166       Co167   2.136       .  S
Co167       N170   2.107       .  S
Co167       N187   2.118       .  S
Co167       N174   2.123       .  S
Co167     Cl1046   2.465       .  S
C168        N206   1.353       .  A
C168       C1001   1.468       .  S
C168       C1396   1.496       .  S
N169        N176   1.318       .  A
N169        N199   1.334       .  A
N169       Co202   2.125       .  S
N170        N206   1.327       .  A
N170       N1025   1.325       .  A
N171        C200   1.334       .  A
N171        N181   1.312       .  A
H172        C197   1.080       .  S
N173        N194   1.311       .  A
N174        N179   1.331       .  A
N174       N1029   1.324       .  A
C175       N1016   1.358   1_554  A
C175        C203   1.466       .  S
C175        C572   1.503       .  S
N176        C191   1.327       .  A
N176       Co198   2.042       .  S
C177        N205   1.336       .  A
C177       C1017   1.461       .  S
C177        H211   1.079       .  S
N179       C1012   1.359       .  A
C180        N201   1.351   1_556  A
C180        C592   1.472       .  S
C180       C1014   1.458       .  S
N181        N187   1.319       .  A
N182        C208   1.323       .  A
N182        N184   1.316       .  A
N182       Co198   2.029       .  S
N183        C197   1.336       .  A
N183        N998   1.312       .  A
N184        N212   1.334       .  A
N184       Co202   2.129       .  S
H185        C208   1.080       .  S
H186        C203   1.079       .  S
N188       N1007   1.325   1_554  A
N188       Co202   2.104       .  S
N189        N201   1.321       .  A
N189       N1042   1.310   1_554  A
N189       Co198   2.065       .  S
C190        N194   1.335       .  A
C190        C204   1.488       .  S
C190        C689   1.494       .  S
C191        C210   1.440       .  S
C191        H195   1.082       .  S
N192        C203   1.340       .  A
N192       N1011   1.323   1_554  A
N192       Co202   2.095       .  S
C196        N212   1.365       .  A
C196        C208   1.445       .  S
C196        C622   1.484       .  S
C197        C997   1.459       .  S
Co198      Cl209   2.436       .  S
N199        C210   1.362       .  A
C200        C632   1.473       .  S
Co202      Cl209   2.455       .  S
N205       N1026   1.310       .  A
Cl209     Co1002   2.424   1_554  S
Cl209     Co1004   2.469   1_554  S
C210        C682   1.476       .  S
C213        N231   1.348       .  A
C213        C549   1.470       .  S
C213       C1087   1.459   1_554  S
N214        N231   1.318       .  A
N214       N1073   1.311   1_554  A
N214       Co251   2.058       .  S
C215        N240   1.354       .  A
C215        C253   1.483       .  S
C215        H260   1.081       .  S
H216        C257   1.081       .  S
C217        N241   1.339       .  A
C217       C1058   1.462       .  S
C217        H246   1.079       .  S
Co218       N236   2.050       .  S
Co218       N226   2.047       .  S
Co218       N258   2.065       .  S
Co218       N234   2.031       .  S
Co218     Cl1099   2.433       .  S
N219        C257   1.355       .  A
N219        N226   1.320       .  A
N219       Co220   2.131       .  S
Co220       N223   2.116       .  S
Co220       N240   2.123       .  S
Co220       N227   2.123       .  S
Co220     Cl1099   2.463       .  S
C221        N259   1.358       .  A
C221        C529   1.495       .  S
C221       C1054   1.461       .  S
N222        N229   1.317       .  A
N222        N252   1.333       .  A
N222       Co255   2.125       .  S
N223        N259   1.330       .  A
N223       N1078   1.322       .  A
N224        C253   1.336       .  A
N224        N234   1.311       .  A
H225        C250   1.077       .  S
N226        N247   1.315       .  A
N227        N232   1.331       .  A
N227       N1082   1.324       .  A
C228       N1069   1.356   1_554  A
C228        C256   1.469       .  S
C228        C539   1.502       .  S
N229        C244   1.326       .  A
N229       Co251   2.035       .  S
C230        N258   1.339       .  A
C230       C1070   1.464       .  S
C230        H264   1.080       .  S
N232       C1065   1.358       .  A
C233        N254   1.345       .  A
C233        C579   1.463       .  S
C233       C1067   1.460   1_554  S
N234        N240   1.317       .  A
N235        C261   1.326       .  A
N235        N237   1.316       .  A
N235       Co251   2.039       .  S
N236        C250   1.334       .  A
N236       N1051   1.311       .  A
N237        N265   1.333       .  A
N237       Co255   2.114       .  S
H238        C261   1.081       .  S
H239        C256   1.078       .  S
N241       N1060   1.323   1_554  A
N241       Co255   2.086       .  S
N242        N254   1.317       .  A
N242       N1095   1.312   1_554  A
N242       Co251   2.051       .  S
C243        N247   1.337       .  A
C243        C257   1.483       .  S
C243        C809   1.487       .  S
C244        C263   1.442       .  S
C244        H248   1.081       .  S
N245        C256   1.341       .  A
N245       N1064   1.323   1_554  A
N245       Co255   2.098       .  S
C249        N265   1.360       .  A
C249        C261   1.442       .  S
C249        C699   1.475       .  S
C250       C1050   1.459       .  S
Co251      Cl262   2.433       .  S
N252        C263   1.363       .  A
C253        C712   1.484       .  S
Co255      Cl262   2.455       .  S
N258       N1079   1.312       .  A
Cl262     Co1055   2.429   1_554  S
Cl262     Co1057   2.464   1_554  S
C263        C802   1.476       .  S
C266        N284   1.343   1_556  A
C266        C519   1.470       .  S
C266       C1140   1.465       .  S
N267        N284   1.314       .  A
N267       N1126   1.311   1_554  A
N267       Co304   2.045       .  S
C268        N293   1.353       .  A
C268        C306   1.482       .  S
C268        H313   1.081       .  S
H269        C310   1.081       .  S
C270        N294   1.340       .  A
C270       C1111   1.465       .  S
C270        H299   1.079       .  S
Co271       N289   2.052       .  S
Co271       N279   2.045       .  S
Co271       N311   2.062       .  S
Co271       N287   2.033       .  S
Co271     Cl1152   2.426       .  S
N272        C310   1.354       .  A
N272        N279   1.319       .  A
N272       Co273   2.120       .  S
Co273       N276   2.115       .  S
Co273       N293   2.120       .  S
Co273       N280   2.108       .  S
Co273     Cl1152   2.466       .  S
C274        N312   1.359       .  A
C274        C499   1.500       .  S
C274       C1107   1.464       .  S
N275        N282   1.317       .  A
N275        N305   1.330       .  A
N275       Co308   2.106       .  S
N276        N312   1.330       .  A
N276       N1131   1.323       .  A
N277        C306   1.336       .  A
N277        N287   1.312       .  A
H278        C303   1.078       .  S
N279        N300   1.313       .  A
N280        N285   1.328       .  A
N280       N1135   1.325       .  A
C281       N1122   1.358   1_554  A
C281        C309   1.462       .  S
C281        C562   1.496       .  S
N282        C297   1.326       .  A
N282       Co304   2.044       .  S
C283        N311   1.337       .  A
C283       C1123   1.462       .  S
C283        H317   1.079       .  S
N285       C1118   1.354       .  A
C286        N307   1.347       .  A
C286        C509   1.469       .  S
C286       C1120   1.462   1_554  S
N287        N293   1.317       .  A
N288        C314   1.326       .  A
N288        N290   1.317       .  A
N288       Co304   2.027       .  S
N289        C303   1.334       .  A
N289       N1104   1.311       .  A
N290        N318   1.331       .  A
N290       Co308   2.113       .  S
H291        C314   1.081       .  S
H292        C309   1.079       .  S
N294       N1113   1.322   1_554  A
N294       Co308   2.089       .  S
N295        N307   1.319       .  A
N295       N1148   1.312   1_554  A
N295       Co304   2.058       .  S
C296        N300   1.336       .  A
C296        C310   1.480       .  S
C296        C769   1.483       .  S
C297        C316   1.446       .  S
C297        H301   1.081       .  S
N298        C309   1.339       .  A
N298       N1117   1.323   1_554  A
N298       Co308   2.087       .  S
C302        N318   1.359       .  A
C302        C314   1.437       .  S
C302        C742   1.462       .  S
C303       C1103   1.461       .  S
Co304      Cl315   2.425       .  S
N305        C316   1.359       .  A
C306        C749   1.482       .  S
Co308      Cl315   2.457       .  S
N311       N1132   1.312       .  A
Cl315     Co1108   2.436   1_554  S
Cl315     Co1110   2.461   1_554  S
C316        C762   1.474       .  S
C319        N337   1.364       .  A
C319        C356   1.443       .  S
C319        C792   1.483       .  S
N320        N337   1.334       .  A
N320        N342   1.317       .  A
N320       Co357   2.126       .  S
C321        N346   1.336       .  A
C321        C359   1.462   1_554  S
C321        H366   1.073       .  S
H322        C363   1.077       .  S
C323        N347   1.357       .  A
C323        C327   1.487       .  S
C323        H352   1.080       .  S
Co324       N342   2.041       .  S
Co324       N332   2.042       .  S
Co324       N364   2.034       .  S
Co324       N340   2.058       .  S
Co324     Cl1205   2.424       .  S
N325        C363   1.331       .  A
N325       N1169   1.312   1_554  A
N325       Co326   2.054       .  S
Co326       N329   2.042       .  S
Co326       N346   2.056       .  S
Co326       N333   2.043       .  S
Co326      Cl368   2.425       .  S
C327        N365   1.337       .  A
C327        C779   1.495       .  S
N328        N358   1.328       .  A
N328       N1172   1.324   1_554  A
N328       Co361   2.116       .  S
N329        N347   1.317       .  A
N329        N365   1.314       .  A
N330       C1196   1.350       .  A
N330        N340   1.321       .  A
H331        C356   1.082       .  S
N332        N353   1.314       .  A
N332       N1162   1.311       .  A
N333        N351   1.319       .  A
N333        N338   1.314       .  A
C334        N338   1.338       .  A
C334        C362   1.484       .  S
C334        C642   1.487       .  S
N335        C350   1.341       .  A
N335       N1165   1.325       .  A
N335       Co357   2.096       .  S
C336        N364   1.325       .  A
C336        C339   1.440       .  S
C336        H370   1.082       .  S
C339        N360   1.359       .  A
C339        C649   1.468       .  S
N340       N1183   1.311       .  A
N341        C367   1.343       .  A
N341       N1180   1.324       .  A
N341       Co357   2.102       .  S
N342        C356   1.327       .  A
N343        N371   1.327       .  A
N343       N1178   1.324   1_554  A
N343       Co361   2.111       .  S
H344        C367   1.081       .  S
H345        C362   1.081       .  S
N346       N1177   1.311   1_554  A
N347       Co361   2.130       .  S
N348        N360   1.331       .  A
N348        N364   1.318       .  A
N348       Co357   2.112       .  S
C349       N1190   1.350   1_554  A
C349        C363   1.460       .  S
C349        C522   1.471       .  S
C350        C369   1.461       .  S
C350        H354   1.082       .  S
N351        C362   1.356       .  A
N351       Co361   2.131       .  S
N353       C1186   1.343       .  A
C355        N371   1.355   1_556  A
C355        C569   1.499       .  S
C355       C1204   1.467       .  S
Co357     Cl1205   2.464       .  S
N358       C1206   1.357   1_554  A
C359       N1167   1.346       .  A
C359        C492   1.470       .  S
Co361      Cl368   2.466       .  S
C367       C1192   1.466       .  S
Cl368     Co1161   2.436   1_554  S
Cl368     Co1194   2.459   1_554  S
C369       N1195   1.355       .  A
C369        C532   1.491       .  S
C372        N390   1.343   1_556  A
C372        C512   1.469   1_556  S
C372       C1246   1.464       .  S
N373        N390   1.316       .  A
N373       N1232   1.311   1_554  A
N373       Co410   2.044       .  S
C374        N399   1.355       .  A
C374        C412   1.484       .  S
C374        H419   1.081       .  S
H375        C416   1.081       .  S
C376        N400   1.338       .  A
C376       C1217   1.465       .  S
C376        H405   1.078       .  S
Co377       N395   2.059       .  S
Co377       N385   2.039       .  S
Co377       N417   2.059       .  S
Co377       N393   2.036       .  S
Co377     Cl1258   2.438       .  S
N378        C416   1.352       .  A
N378        N385   1.319       .  A
N378       Co379   2.118       .  S
Co379       N382   2.117       .  S
Co379       N399   2.128       .  S
Co379       N386   2.110       .  S
Co379     Cl1258   2.460       .  S
C380        N418   1.357       .  A
C380       C1213   1.468       .  S
C380       C1379   1.504       .  S
N381        N388   1.317       .  A
N381        N411   1.334       .  A
N381       Co414   2.120       .  S
N382        N418   1.330       .  A
N382       N1237   1.323       .  A
N383        C412   1.336       .  A
N383        N393   1.313       .  A
H384        C409   1.080       .  S
N385        N406   1.313       .  A
N386        N391   1.328       .  A
N386       N1241   1.324       .  A
C387       N1228   1.357   1_554  A
C387        C415   1.465       .  S
C387        C482   1.499       .  S
N388        C403   1.325       .  A
N388       Co410   2.040       .  S
C389        N417   1.338       .  A
C389       C1229   1.463       .  S
C389        H423   1.079       .  S
N391       C1224   1.356       .  A
C392        N413   1.350   1_556  A
C392        C489   1.470       .  S
C392       C1226   1.459       .  S
N393        N399   1.318       .  A
N394        C420   1.326       .  A
N394        N396   1.318       .  A
N394       Co410   2.036       .  S
N395        C409   1.339       .  A
N395       N1210   1.312       .  A
N396        N424   1.329       .  A
N396       Co414   2.105       .  S
H397        C420   1.082       .  S
H398        C415   1.080       .  S
N400       N1219   1.323   1_554  A
N400       Co414   2.088       .  S
N401        N413   1.319       .  A
N401       N1254   1.311   1_554  A
N401       Co410   2.058       .  S
C402        N406   1.337       .  A
C402        C416   1.479       .  S
C402        C729   1.478       .  S
C403        C422   1.441       .  S
C403        H407   1.081       .  S
N404        C415   1.341       .  A
N404       N1223   1.324   1_554  A
N404       Co414   2.096       .  S
C408        N424   1.357       .  A
C408        C420   1.441       .  S
C408        C659   1.464       .  S
C409       C1209   1.460       .  S
Co410      Cl421   2.424   1_554  S
N411        C422   1.363       .  A
C412        C672   1.487       .  S
Co414      Cl421   2.459   1_554  S
N417       N1238   1.311       .  A
Cl421     Co1214   2.432       .  S
Cl421     Co1216   2.464       .  S
C422        C722   1.479       .  S
C425        N443   1.357       .  A
C425        C462   1.442       .  S
C425        C829   1.465       .  S
N426        N443   1.330       .  A
N426        N448   1.318       .  A
N426       Co463   2.108       .  S
C427        N452   1.339       .  A
C427        C465   1.464       .  S
C427        H472   1.075       .  S
H428        C469   1.079       .  S
C429        N453   1.352       .  A
C429        C433   1.478       .  S
C429        H458   1.081       .  S
Co430       N448   2.039       .  S
Co430       N438   2.060       .  S
Co430       N470   2.047       .  S
Co430       N446   2.056       .  S
Co430     Cl1311   2.433       .  S
N431        C469   1.334       .  A
N431       N1275   1.310   1_554  A
N431       Co432   2.050       .  S
Co432       N435   2.042       .  S
Co432       N452   2.064       .  S
Co432       N439   2.032       .  S
Co432      Cl474   2.439       .  S
C433        N471   1.338       .  A
C433        C822   1.481       .  S
N434        N464   1.329       .  A
N434       N1278   1.324   1_554  A
N434       Co467   2.121       .  S
N435        N453   1.318       .  A
N435        N471   1.314       .  A
N436       C1302   1.347       .  A
N436        N446   1.319       .  A
H437        C462   1.082       .  S
N438        N459   1.319       .  A
N438       N1268   1.311       .  A
N439        N457   1.318       .  A
N439        N444   1.311       .  A
C440        N444   1.335       .  A
C440        C468   1.488       .  S
C440        C602   1.493       .  S
N441        C456   1.341       .  A
N441       N1271   1.323       .  A
N441       Co463   2.089       .  S
C442        N470   1.328       .  A
C442        C445   1.443       .  S
C442        H476   1.082       .  S
C445        N466   1.358       .  A
C445        C612   1.469       .  S
N446       N1289   1.312       .  A
N447        C473   1.342       .  A
N447       N1286   1.323       .  A
N447       Co463   2.091       .  S
N448        C462   1.327       .  A
N449        N477   1.327       .  A
N449       N1284   1.324   1_554  A
N449       Co467   2.104       .  S
H450        C473   1.079       .  S
H451        C468   1.081       .  S
N452       N1283   1.311   1_554  A
N453       Co467   2.117       .  S
N454        N466   1.332       .  A
N454        N470   1.319       .  A
N454       Co463   2.112       .  S
C455       N1296   1.348   1_554  A
C455        C469   1.461       .  S
C455        C552   1.470       .  S
C456        C475   1.462       .  S
C456        H460   1.080       .  S
N457        C468   1.359       .  A
N457       Co467   2.139       .  S
N459       C1292   1.349       .  A
C461        N477   1.354       .  A
C461        C479   1.494       .  S
C461       C1310   1.466   1_554  S
Co463     Cl1311   2.457       .  S
N464       C1312   1.358       .  A
C465       N1273   1.346   1_554  A
C465        C589   1.472       .  S
Co467      Cl474   2.455       .  S
C473       C1298   1.466       .  S
Cl474     Co1267   2.417   1_554  S
Cl474     Co1300   2.466   1_554  S
C475       N1301   1.358       .  A
C475        C502   1.498       .  S
C478        C479   1.408       .  A
C478        C483   1.403       .  A
C478        F485   1.358       .  S
C479        C480   1.409   1_554  A
C480        C481   1.405       .  A
C480       F1324   1.357       .  S
C481        C482   1.410   1_556  A
C481       F1323   1.357       .  S
C482        C483   1.413       .  A
C483        F484   1.356       .  S
F486       C1318   1.358       .  S
F487       C1317   1.355       .  S
C488        C489   1.407       .  A
C488        C493   1.389       .  A
C488        F495   1.355       .  S
C489        C490   1.406   1_556  A
C490        C491   1.391       .  A
C490        F497   1.358       .  S
C491        C492   1.405   1_554  A
C491        F496   1.355       .  S
C492        C493   1.407       .  A
C493        F494   1.358       .  S
C498        C503   1.405   1_565  A
C498       C1336   1.415       .  A
C498        F505   1.355       .  S
C499        C500   1.409       .  A
C499       C1335   1.413       .  A
C500        C501   1.406   1_565  A
C500        F507   1.358       .  S
C501        C502   1.413       .  A
C501        F506   1.356       .  S
C502       C1340   1.407       .  A
C503       C1339   1.408       .  A
C503        F504   1.358       .  S
C508        C509   1.405   1_556  A
C508        C513   1.394       .  A
C508        F515   1.357       .  S
C509        C510   1.406       .  A
C510        C511   1.388       .  A
C510        F517   1.358       .  S
C511        C512   1.408       .  A
C511        F516   1.358       .  S
C512        C513   1.404   1_554  A
C513       F1351   1.355       .  S
F514       C1350   1.356       .  S
C518        C523   1.386       .  A
C518       C1356   1.404       .  A
C518        F525   1.355       .  S
C519        C520   1.407   1_556  A
C519       C1355   1.405       .  A
C520        C521   1.383       .  A
C520        F527   1.359       .  S
C521        C522   1.406       .  A
C521        F526   1.355       .  S
C522       C1360   1.408   1_554  A
C523       C1359   1.410       .  A
C523        F524   1.359       .  S
C528        C533   1.402   1_545  A
C528       C1366   1.412       .  A
C528        F535   1.356       .  S
C529        C530   1.408       .  A
C529       C1365   1.413       .  A
C530        C531   1.405   1_545  A
C530        F537   1.357       .  S
C531        C532   1.410       .  A
C531        F536   1.357       .  S
C532       C1370   1.406       .  A
C533       C1369   1.408       .  A
C533        F534   1.358       .  S
C538        C543   1.409   1_655  A
C538       C1376   1.411       .  A
C538        F545   1.357       .  S
C539        C540   1.411       .  A
C539       C1375   1.412   1_554  A
C540        C541   1.400   1_655  A
C540        F547   1.355       .  S
C541        C542   1.412       .  A
C541        F546   1.355       .  S
C542       C1217   1.501       .  S
C542       C1380   1.410   1_554  A
C543       C1379   1.411       .  A
C543        F544   1.357       .  S
C548        C553   1.390       .  A
C548       C1386   1.407       .  A
C548        F555   1.354       .  S
C549        C550   1.406       .  A
C549       C1385   1.406   1_554  A
C550        C551   1.389       .  A
C550        F557   1.358       .  S
C551        C552   1.406       .  A
C551        F556   1.355       .  S
C552       C1390   1.407   1_554  A
C553       C1389   1.405       .  A
C553        F554   1.358       .  S
C558        C559   1.410   1_556  A
C558        C563   1.405   1_655  A
C558       F1402   1.357       .  S
C559       C1005   1.494       .  S
C559        C560   1.409       .  A
C560        C561   1.402   1_655  A
C560        F567   1.357       .  S
C561        C562   1.412       .  A
C561        F566   1.356       .  S
C562        C563   1.408   1_554  A
C563        F564   1.357       .  S
F565       C1395   1.358       .  S
C568        C569   1.408   1_554  A
C568        C573   1.402       .  A
C568        F575   1.358       .  S
C569        C570   1.412       .  A
C570        C571   1.408       .  A
C570       F1414   1.356       .  S
C571        C572   1.411   1_556  A
C571       F1413   1.358       .  S
C572        C573   1.413       .  A
C573        F574   1.355       .  S
F576       C1408   1.358       .  S
F577       C1407   1.356       .  S
C578        C579   1.406       .  A
C578        C583   1.385       .  A
C578        F585   1.358       .  S
C579       C1417   1.404   1_554  A
C580        C581   1.393       .  A
C580       C1416   1.403       .  A
C580        F587   1.357       .  S
C581       C1419   1.406       .  A
C581        F586   1.357       .  S
C582        C583   1.405       .  A
C582       C1418   1.405   1_554  A
C583        F584   1.358       .  S
C588        C589   1.405       .  A
C588        C593   1.393       .  A
C588        F595   1.356       .  S
C589       C1427   1.407   1_554  A
C590        C591   1.391       .  A
C590       C1426   1.408       .  A
C590        F597   1.358       .  S
C591       C1429   1.406       .  A
C591        F596   1.355       .  S
C592        C593   1.406   1_556  A
C592       C1428   1.407       .  A
C593        F594   1.357       .  S
C598        C599   1.418       .  A
C598        C603   1.406       .  A
C598        F605   1.357       .  S
C599        C600   1.399       .  A
C600        C601   1.394       .  A
C600        F607   1.357       .  S
C601        C602   1.419       .  A
C601        F606   1.357       .  S
C602        C603   1.402       .  A
C603        F604   1.356       .  S
C608        C609   1.410       .  A
C608        C613   1.402       .  A
C608        F615   1.358       .  S
C609        C610   1.400       .  A
C610        C611   1.395       .  A
C610        F617   1.358       .  S
C611        C612   1.408       .  A
C611        F616   1.358       .  S
C612        C613   1.401       .  A
C613        F614   1.358       .  S
C618        C619   1.397       .  A
C618        C623   1.393       .  A
C618        F625   1.359       .  S
C619        C620   1.412       .  A
C620        C621   1.402       .  A
C620        F627   1.357       .  S
C621        C622   1.403       .  A
C621        F626   1.357       .  S
C622        C623   1.415       .  A
C623        F624   1.356       .  S
C628        C629   1.402       .  A
C628        C633   1.395       .  A
C628        F635   1.358       .  S
C629        C630   1.415       .  A
C630        C631   1.400       .  A
C630        F637   1.354       .  S
C631        C632   1.397       .  A
C631        F636   1.358       .  S
C632        C633   1.413       .  A
C633        F634   1.359       .  S
C638        C639   1.400       .  A
C638        C643   1.397       .  A
C638        F645   1.357       .  S
C639        C640   1.415       .  A
C640        C641   1.405       .  A
C640        F647   1.358       .  S
C641        C642   1.403       .  A
C641        F646   1.357       .  S
C642        C643   1.415       .  A
C643        F644   1.357       .  S
C648        C649   1.398       .  A
C648        C653   1.398       .  A
C648        F655   1.358       .  S
C649        C650   1.410       .  A
C650        C651   1.394       .  A
C650        F657   1.358       .  S
C651        C652   1.401       .  A
C651        F656   1.357       .  S
C652        C653   1.411       .  A
C653        F654   1.356       .  S
C658        C659   1.396       .  A
C658        C663   1.396       .  A
C658        F665   1.358       .  S
C659        C660   1.409       .  A
C660        C661   1.394       .  A
C660        F667   1.358       .  S
C661        C662   1.401       .  A
C661        F666   1.358       .  S
C662        C663   1.413       .  A
C663        F664   1.357       .  S
C668        C669   1.398       .  A
C668        C673   1.396       .  A
C668        F675   1.358       .  S
C669        C670   1.415       .  A
C670        C671   1.402       .  A
C670        F677   1.357       .  S
C671        C672   1.402       .  A
C671        F676   1.357       .  S
C672        C673   1.417       .  A
C673        F674   1.357       .  S
C678        C679   1.401       .  A
C678        C683   1.396       .  A
C678        F685   1.357       .  S
C679        C680   1.411       .  A
C680        C681   1.404       .  A
C680        F687   1.356       .  S
C681        C682   1.402       .  A
C681        F686   1.358       .  S
C682        C683   1.410       .  A
C683        F684   1.358       .  S
C688        C689   1.419       .  A
C688        C693   1.394       .  A
C688        F695   1.357       .  S
C689        C690   1.404       .  A
C690        C691   1.408       .  A
C690        F697   1.357       .  S
C691        C692   1.419       .  A
C691        F696   1.358       .  S
C692        C693   1.399       .  A
C693        F694   1.356       .  S
C698        C699   1.402       .  A
C698        C703   1.402       .  A
C698        F705   1.357       .  S
C699        C700   1.412       .  A
C700        C701   1.393       .  A
C700        F707   1.358       .  S
C701        C702   1.396       .  A
C701        F706   1.358       .  S
C702        C703   1.410       .  A
C703        F704   1.358       .  S
C708        C709   1.415       .  A
C708        C713   1.403       .  A
C708        F715   1.357       .  S
C709        C710   1.396       .  A
C710        C711   1.393       .  A
C710        F717   1.358       .  S
C711        C712   1.417       .  A
C711        F716   1.358       .  S
C712        C713   1.403       .  A
C713        F714   1.357       .  S
C718        C719   1.400       .  A
C718        C723   1.393       .  A
C718        F725   1.357       .  S
C719        C720   1.415       .  A
C720        C721   1.404       .  A
C720        F727   1.358       .  S
C721        C722   1.401       .  A
C721        F726   1.358       .  S
C722        C723   1.413       .  A
C723        F724   1.358       .  S
C728        C729   1.414       .  A
C728        C733   1.395       .  A
C728        F735   1.357       .  S
C729        C730   1.400       .  A
C730        C731   1.399       .  A
C730        F737   1.357       .  S
C731        C732   1.414       .  A
C731        F736   1.358       .  S
C732        C733   1.399       .  A
C733        F734   1.358       .  S
C738        C739   1.401       .  A
C738        C743   1.397       .  A
C738        F745   1.358       .  S
C739        C740   1.409       .  A
C740        C741   1.395       .  A
C740        F747   1.356       .  S
C741        C742   1.397       .  A
C741        F746   1.358       .  S
C742        C743   1.409       .  A
C743        F744   1.358       .  S
C748        C749   1.416       .  A
C748        C753   1.393       .  A
C748        F755   1.358       .  S
C749        C750   1.403       .  A
C750        C751   1.402       .  A
C750        F757   1.357       .  S
C751        C752   1.413       .  A
C751        F756   1.357       .  S
C752        C753   1.397       .  A
C753        F754   1.358       .  S
C758        C759   1.398       .  A
C758        C763   1.394       .  A
C758        F765   1.357       .  S
C759        C760   1.412       .  A
C760        C761   1.399       .  A
C760        F767   1.358       .  S
C761        C762   1.402       .  A
C761        F766   1.358       .  S
C762        C763   1.411       .  A
C763        F764   1.358       .  S
C768        C769   1.401       .  A
C768        C773   1.402       .  A
C768        F775   1.357       .  S
C769        C770   1.415       .  A
C770        C771   1.395       .  A
C770        F777   1.358       .  S
C771        C772   1.401       .  A
C771        F776   1.357       .  S
C772        C773   1.415       .  A
C773        F774   1.356       .  S
C778        C779   1.419       .  A
C778        C783   1.398       .  A
C778        F785   1.357       .  S
C779        C780   1.404       .  A
C780        C781   1.406       .  A
C780        F787   1.356       .  S
C781        C782   1.416       .  A
C781        F786   1.356       .  S
C782        C783   1.399       .  A
C783        F784   1.358       .  S
C788        C789   1.417       .  A
C788        C793   1.403       .  A
C788        F795   1.356       .  S
C789        C790   1.403       .  A
C790        C791   1.396       .  A
C790        F797   1.358       .  S
C791        C792   1.413       .  A
C791        F796   1.358       .  S
C792        C793   1.400       .  A
C793        F794   1.358       .  S
C798        C799   1.411       .  A
C798        C803   1.400       .  A
C798        F805   1.358       .  S
C799        C800   1.398       .  A
C800        C801   1.397       .  A
C800        F807   1.358       .  S
C801        C802   1.413       .  A
C801        F806   1.358       .  S
C802        C803   1.401       .  A
C803        F804   1.357       .  S
C808        C809   1.416       .  A
C808        C813   1.399       .  A
C808        F815   1.356       .  S
C809        C810   1.401       .  A
C810        C811   1.402       .  A
C810        F817   1.357       .  S
C811        C812   1.416       .  A
C811        F816   1.358       .  S
C812        C813   1.400       .  A
C813        F814   1.358       .  S
C818        C819   1.413       .  A
C818        C823   1.401       .  A
C818        F825   1.357       .  S
C819        C820   1.399       .  A
C820        C821   1.396       .  A
C820        F827   1.358       .  S
C821        C822   1.414       .  A
C821        F826   1.358       .  S
C822        C823   1.402       .  A
C823        F824   1.357       .  S
C828        C829   1.408       .  A
C828        C833   1.395       .  A
C828        F835   1.358       .  S
C829        C830   1.398       .  A
C830        C831   1.399       .  A
C830        F837   1.358       .  S
C831        C832   1.411       .  A
C831        F836   1.356       .  S
C832        C833   1.401       .  A
C833        F834   1.358       .  S
C838        N856   1.360       .  A
C838        C875   1.451       .  S
C838       C1669   1.483       .  S
N839        N856   1.328       .  A
N839        N861   1.318       .  A
N839       Co876   2.113       .  S
C840        N865   1.349       .  A
C840        C878   1.474       .  S
C840        H885   1.082       .  S
H841        C882   1.080       .  S
C842        N866   1.334       .  A
C842        C846   1.450       .  S
C842        H871   1.081       .  S
Co843       N861   2.049   1_565  S
Co843       N851   2.055       .  S
Co843       N883   2.062   1_565  S
Co843       N859   2.047       .  S
Co843      Cl887   2.427   1_565  S
N844        C882   1.346       .  A
N844        N851   1.318       .  A
N844       Co845   2.104       .  S
Co845       N848   2.117       .  S
Co845       N865   2.119       .  S
Co845       N852   2.108       .  S
Co845      Cl887   2.473   1_565  S
C846        N884   1.359       .  A
C846       C1626   1.481       .  S
N847        N854   1.319       .  A
N847        N877   1.320       .  A
N847       Co880   2.054       .  S
N848        N866   1.320       .  A
N848        N884   1.329       .  A
N849        C878   1.337       .  A
N849        N859   1.317       .  A
H850        C875   1.080       .  S
N851        N872   1.319       .  A
N852        N870   1.318       .  A
N852        N857   1.329       .  A
C853        N857   1.359       .  A
C853        C881   1.449       .  S
C853       C1619   1.481       .  S
N854        C869   1.352       .  A
N854       Co876   2.123       .  S
C855        N883   1.336       .  A
C855        C858   1.449       .  S
C855        H889   1.081       .  S
C858        N879   1.360       .  A
C858       C1656   1.485       .  S
N859        N865   1.321       .  A
N860        C886   1.347       .  A
N860        N862   1.320       .  A
N860       Co876   2.109       .  S
N861        C875   1.331       .  A
N862        N890   1.317       .  A
N862       Co880   2.051       .  S
H863        C886   1.082       .  S
H864        C881   1.080       .  S
N866       Co880   2.057   1_565  S
N867        N879   1.333       .  A
N867        N883   1.319       .  A
N867       Co876   2.122       .  S
C868        N872   1.342       .  A
C868        C882   1.474       .  S
C868       C1609   1.483       .  S
C869        C888   1.478       .  S
C869        H873   1.081       .  S
N870        C881   1.335       .  A
N870       Co880   2.058   1_565  S
C874        N890   1.339       .  A
C874        C886   1.472       .  S
C874       C1636   1.474       .  S
Co876      Cl887   2.473       .  S
N877        C888   1.341       .  A
C878       C1596   1.472       .  S
Co880      Cl887   2.427       .  S
C888       C1649   1.488       .  S
C891        N909   1.360       .  A
C891        C928   1.449       .  S
C891       C1589   1.482       .  S
N892        N909   1.329       .  A
N892        N914   1.320       .  A
N892       Co929   2.116       .  S
C893        N918   1.347       .  A
C893        C931   1.474       .  S
C893        H938   1.081       .  S
H894        C935   1.081       .  S
C895        N919   1.331       .  A
C895        C899   1.442       .  S
C895        H924   1.080       .  S
Co896       N914   2.059   1_655  S
Co896       N904   2.049       .  S
Co896       N936   2.050   1_655  S
Co896       N912   2.056       .  S
Co896      Cl940   2.420       .  S
N897        C935   1.350       .  A
N897        N904   1.319       .  A
N897       Co898   2.116       .  S
Co898       N901   2.120       .  S
Co898       N918   2.113       .  S
Co898       N905   2.117       .  S
Co898      Cl940   2.475       .  S
C899        N937   1.360       .  A
C899       C1546   1.472       .  S
N900        N907   1.319       .  A
N900        N930   1.317       .  A
N900       Co933   2.045       .  S
N901        N919   1.320       .  A
N901        N937   1.331       .  A
N902        C931   1.342       .  A
N902        N912   1.319       .  A
H903        C928   1.080       .  S
N904        N925   1.317       .  A
N905        N923   1.319       .  A
N905        N910   1.329       .  A
C906        N910   1.359       .  A
C906        C934   1.442       .  S
C906       C1539   1.469       .  S
N907        C922   1.350       .  A
N907       Co929   2.117       .  S
C908        N936   1.333       .  A
C908        C911   1.451       .  S
C908        H942   1.081       .  S
C911        N932   1.360       .  A
C911       C1576   1.484       .  S
N912        N918   1.320       .  A
N913        C939   1.344       .  A
N913        N915   1.320       .  A
N913       Co929   2.109       .  S
N914        C928   1.334       .  A
N915        N943   1.321       .  A
N915       Co933   2.056       .  S
H916        C939   1.082       .  S
H917        C934   1.081       .  S
N919       Co933   2.048   1_655  S
N920        N932   1.329       .  A
N920        N936   1.317       .  A
N920       Co929   2.112       .  S
C921        N925   1.338       .  A
C921        C935   1.478       .  S
C921       C1529   1.482       .  S
C922        C941   1.478       .  S
C922        H926   1.081       .  S
N923        C934   1.333       .  A
N923       Co933   2.041   1_655  S
C927        N943   1.342       .  A
C927        C939   1.472       .  S
C927       C1556   1.478       .  S
Co929      Cl940   2.476   1_455  S
N930        C941   1.338       .  A
C931       C1516   1.480       .  S
Co933      Cl940   2.425   1_455  S
C941       C1569   1.481       .  S
C944        N962   1.360       .  A
C944        C981   1.445       .  S
C944       C1506   1.478       .  S
N945        N962   1.330       .  A
N945        N967   1.319       .  A
N945       Co982   2.118       .  S
C946        N971   1.348       .  A
C946        C984   1.479       .  S
C946        H991   1.080       .  S
H947        C988   1.081       .  S
C948        N972   1.330       .  A
C948        C952   1.444       .  S
C948        H977   1.079       .  S
Co949       N967   2.050       .  S
Co949       N957   2.051       .  S
Co949       N989   2.047       .  S
Co949       N965   2.051       .  S
Co949      Cl993   2.418       .  S
N950        C988   1.345       .  A
N950        N957   1.320       .  A
N950       Co951   2.103       .  S
Co951       N954   2.119       .  S
Co951       N971   2.112       .  S
Co951       N958   2.105       .  S
Co951      Cl993   2.478       .  S
C952        N990   1.361       .  A
C952       C1466   1.476       .  S
N953        N960   1.320       .  A
N953        N983   1.320       .  A
N953       Co986   2.057       .  S
N954        N972   1.319       .  A
N954        N990   1.331       .  A
N955        C984   1.340       .  A
N955        N965   1.319       .  A
H956        C981   1.082       .  S
N957        N978   1.317       .  A
N958        N976   1.320       .  A
N958        N963   1.329       .  A
C959        N963   1.357       .  A
C959        C987   1.443       .  S
C959       C1456   1.468       .  S
N960        C975   1.346       .  A
N960       Co982   2.112       .  S
C961        N989   1.331       .  A
C961        C964   1.447       .  S
C961        H995   1.082       .  S
C964        N985   1.360       .  A
C964       C1499   1.479       .  S
N965        N971   1.318       .  A
N966        C992   1.348       .  A
N966        N968   1.319       .  A
N966       Co982   2.113       .  S
N967        C981   1.332       .  A
N968        N996   1.319       .  A
N968       Co986   2.053       .  S
H969        C992   1.080       .  S
H970        C987   1.082       .  S
N972       Co986   2.043       .  S
N973        N985   1.329       .  A
N973        N989   1.319       .  A
N973       Co982   2.116       .  S
C974        N978   1.339       .  A
C974        C988   1.472       .  S
C974       C1446   1.472       .  S
C975        C994   1.473       .  S
C975        H979   1.081       .  S
N976        C987   1.330       .  A
N976       Co986   2.050       .  S
C980        N996   1.340       .  A
C980        C992   1.478       .  S
C980       C1476   1.486       .  S
Co982      Cl993   2.478       .  S
N983        C994   1.341       .  A
C984       C1436   1.487       .  S
Co986      Cl993   2.420       .  S
C994       C1489   1.478       .  S
C997       N1015   1.346       .  A
C997       C1419   1.465       .  S
N998       N1015   1.318       .  A
N998      Co1035   2.051       .  S
C999       N1024   1.353       .  A
C999       C1037   1.480       .  S
C999       H1044   1.081       .  S
H1000      C1041   1.081       .  S
C1001      N1025   1.343       .  A
C1001      H1030   1.080       .  S
Co1002     N1020   2.059       .  S
Co1002     N1010   2.030       .  S
Co1002     N1042   2.047       .  S
Co1002     N1018   2.043       .  S
N1003      C1041   1.357       .  A
N1003      N1010   1.318       .  A
N1003     Co1004   2.133       .  S
Co1004     N1007   2.107       .  S
Co1004     N1024   2.115       .  S
Co1004     N1011   2.117       .  S
C1005      N1043   1.354   1_554  A
N1006      N1013   1.318       .  A
N1006      N1036   1.335       .  A
N1006     Co1039   2.128       .  S
N1007      N1043   1.327       .  A
N1008      C1037   1.337       .  A
N1008      N1018   1.313       .  A
H1009      C1034   1.080       .  S
N1010      N1031   1.311       .  A
N1011      N1016   1.330       .  A
C1012      C1040   1.463       .  S
C1012      C1409   1.500       .  S
N1013      C1028   1.326       .  A
N1013     Co1035   2.038       .  S
C1014      N1042   1.332       .  A
C1014      H1048   1.077       .  S
C1017      N1038   1.349       .  A
C1017      C1429   1.472       .  S
N1018      N1024   1.318       .  A
N1019      C1045   1.325       .  A
N1019      N1021   1.317       .  A
N1019     Co1035   2.033       .  S
N1020      C1034   1.337       .  A
N1021      N1049   1.331       .  A
N1021     Co1039   2.120       .  S
H1022      C1045   1.080       .  S
H1023      C1040   1.081       .  S
N1025     Co1039   2.105       .  S
N1026      N1038   1.319       .  A
N1026     Co1035   2.058       .  S
C1027      N1031   1.334       .  A
C1027      C1041   1.486       .  S
C1027      C1526   1.487       .  S
C1028      C1047   1.440       .  S
C1028      H1032   1.081       .  S
N1029      C1040   1.342       .  A
N1029     Co1039   2.099       .  S
C1033      N1049   1.363       .  A
C1033      C1045   1.445       .  S
C1033      C1459   1.478       .  S
Co1035    Cl1046   2.432       .  S
N1036      C1047   1.364       .  A
C1037      C1469   1.481       .  S
Co1039    Cl1046   2.458       .  S
C1047      C1519   1.479       .  S
C1050      N1068   1.348       .  A
C1050      C1386   1.471       .  S
N1051      N1068   1.319       .  A
N1051     Co1088   2.058       .  S
C1052      N1077   1.352       .  A
C1052      C1090   1.480       .  S
C1052      H1097   1.081       .  S
H1053      C1094   1.081       .  S
C1054      N1078   1.339       .  A
C1054      H1083   1.080       .  S
Co1055     N1073   2.049       .  S
Co1055     N1063   2.050       .  S
Co1055     N1095   2.059       .  S
Co1055     N1071   2.032       .  S
N1056      C1094   1.355       .  A
N1056      N1063   1.319       .  A
N1056     Co1057   2.128       .  S
Co1057     N1060   2.113       .  S
Co1057     N1077   2.118       .  S
Co1057     N1064   2.112       .  S
C1058      N1096   1.357   1_554  A
C1058      C1366   1.494       .  S
N1059      N1066   1.317       .  A
N1059      N1089   1.332       .  A
N1059     Co1092   2.123       .  S
N1060      N1096   1.328       .  A
N1061      C1090   1.336       .  A
N1061      N1071   1.312       .  A
H1062      C1087   1.078       .  S
N1063      N1084   1.316       .  A
N1064      N1069   1.328       .  A
C1065      C1093   1.467       .  S
C1065      C1376   1.504       .  S
N1066      C1081   1.326       .  A
N1066     Co1088   2.036       .  S
C1067      N1095   1.337       .  A
C1067      H1101   1.081       .  S
C1070      N1091   1.343       .  A
C1070      C1416   1.465       .  S
N1071      N1077   1.317       .  A
N1072      C1098   1.325       .  A
N1072      N1074   1.315       .  A
N1072     Co1088   2.036       .  S
N1073      C1087   1.334       .  A
N1074      N1102   1.333       .  A
N1074     Co1092   2.114       .  S
H1075      C1098   1.080       .  S
H1076      C1093   1.079       .  S
N1078     Co1092   2.086       .  S
N1079      N1091   1.316       .  A
N1079     Co1088   2.049       .  S
C1080      N1084   1.339       .  A
C1080      C1094   1.483       .  S
C1080      C1646   1.490       .  S
C1081      C1100   1.445       .  S
C1081      H1085   1.080       .  S
N1082      C1093   1.342       .  A
N1082     Co1092   2.102       .  S
C1086      N1102   1.362       .  A
C1086      C1098   1.443       .  S
C1086      C1536   1.479       .  S
Co1088    Cl1099   2.431       .  S
N1089      C1100   1.362       .  A
C1090      C1549   1.477       .  S
Co1092    Cl1099   2.455       .  S
C1100      C1639   1.479       .  S
C1103      N1121   1.347       .  A
C1103      C1356   1.470       .  S
N1104      N1121   1.319       .  A
N1104     Co1141   2.054       .  S
C1105      N1130   1.354       .  A
C1105      C1143   1.482       .  S
C1105      H1150   1.081       .  S
H1106      C1147   1.081       .  S
C1107      N1131   1.339       .  A
C1107      H1136   1.080       .  S
Co1108     N1126   2.067       .  S
Co1108     N1116   2.036       .  S
Co1108     N1148   2.061       .  S
Co1108     N1124   2.041       .  S
N1109      C1147   1.355       .  A
N1109      N1116   1.319       .  A
N1109     Co1110   2.128       .  S
Co1110     N1113   2.123       .  S
Co1110     N1130   2.125       .  S
Co1110     N1117   2.120       .  S
C1111      N1149   1.360   1_554  A
C1111      C1336   1.505       .  S
N1112      N1119   1.318       .  A
N1112      N1142   1.333       .  A
N1112     Co1145   2.123       .  S
N1113      N1149   1.331       .  A
N1114      C1143   1.338       .  A
N1114      N1124   1.313       .  A
H1115      C1140   1.079       .  S
N1116      N1137   1.311       .  A
N1117      N1122   1.330       .  A
C1118      C1146   1.467       .  S
C1118      C1399   1.496       .  S
N1119      C1134   1.326       .  A
N1119     Co1141   2.040       .  S
C1120      N1148   1.337       .  A
C1120      H1154   1.076       .  S
C1123      N1144   1.346       .  A
C1123      C1346   1.465       .  S
N1124      N1130   1.319       .  A
N1125      C1151   1.325       .  A
N1125      N1127   1.317       .  A
N1125     Co1141   2.033       .  S
N1126      C1140   1.342       .  A
N1127      N1155   1.334       .  A
N1127     Co1145   2.121       .  S
H1128      C1151   1.081       .  S
H1129      C1146   1.080       .  S
N1131     Co1145   2.092       .  S
N1132      N1144   1.318       .  A
N1132     Co1141   2.052       .  S
C1133      N1137   1.335       .  A
C1133      C1147   1.484       .  S
C1133      C1606   1.485       .  S
C1134      C1153   1.443       .  S
C1134      H1138   1.081       .  S
N1135      C1146   1.342       .  A
N1135     Co1145   2.103       .  S
C1139      N1155   1.362       .  A
C1139      C1151   1.439       .  S
C1139      C1579   1.475       .  S
Co1141    Cl1152   2.431       .  S
N1142      C1153   1.362       .  A
C1143      C1586   1.487       .  S
Co1145    Cl1152   2.457       .  S
C1153      C1599   1.477       .  S
C1156      N1174   1.361       .  A
C1156      C1193   1.442       .  S
C1156      C1629   1.474       .  S
N1157      N1174   1.333       .  A
N1157      N1179   1.318       .  A
N1157     Co1194   2.121       .  S
C1158      N1183   1.330       .  A
C1158      C1196   1.457       .  S
C1158      H1203   1.092       .  S
H1159      C1200   1.079       .  S
C1160      N1184   1.356       .  A
C1160      C1164   1.484       .  S
C1160      H1189   1.080       .  S
Co1161     N1179   2.038       .  S
Co1161     N1169   2.062       .  S
Co1161     N1201   2.046       .  S
Co1161     N1177   2.049       .  S
N1162      C1200   1.340       .  A
N1162     Co1163   2.063       .  S
Co1163     N1166   2.034       .  S
Co1163     N1183   2.051       .  S
Co1163     N1170   2.042       .  S
Co1163    Cl1205   2.433       .  S
C1164      N1202   1.336       .  A
C1164      C1616   1.487       .  S
N1165      N1195   1.328       .  A
N1165     Co1198   2.115       .  S
N1166      N1184   1.318       .  A
N1166      N1202   1.313       .  A
N1167      N1177   1.318       .  A
H1168      C1193   1.082       .  S
N1169      N1190   1.322       .  A
N1170      N1188   1.318       .  A
N1170      N1175   1.312       .  A
C1171      N1175   1.336       .  A
C1171      C1199   1.487       .  S
C1171      C1479   1.491       .  S
N1172      C1187   1.339       .  A
N1172     Co1194   2.091       .  S
C1173      N1201   1.327       .  A
C1173      C1176   1.443       .  S
C1173      H1207   1.082       .  S
C1176      N1197   1.361       .  A
C1176      C1486   1.476       .  S
N1178      C1204   1.344       .  A
N1178     Co1194   2.100       .  S
N1179      C1193   1.327       .  A
N1180      N1208   1.330       .  A
N1180     Co1198   2.122       .  S
H1181      C1204   1.081       .  S
H1182      C1199   1.080       .  S
N1184     Co1198   2.132       .  S
N1185      N1197   1.333       .  A
N1185      N1201   1.319       .  A
N1185     Co1194   2.118       .  S
C1186      C1200   1.467       .  S
C1186      C1359   1.470       .  S
C1187      C1206   1.463       .  S
C1187      H1191   1.080       .  S
N1188      C1199   1.358       .  A
N1188     Co1198   2.131       .  S
C1192      N1208   1.358       .  A
C1192      C1406   1.503       .  S
C1196      C1329   1.471       .  S
Co1198    Cl1205   2.463       .  S
C1206      C1369   1.497   1_556  S
C1209      N1227   1.343       .  A
C1209      C1349   1.463       .  S
N1210      N1227   1.317       .  A
N1210     Co1247   2.049       .  S
C1211      N1236   1.356       .  A
C1211      C1249   1.481       .  S
C1211      H1256   1.081       .  S
H1212      C1253   1.081       .  S
C1213      N1237   1.343       .  A
C1213      H1242   1.080       .  S
Co1214     N1232   2.067       .  S
Co1214     N1222   2.031       .  S
Co1214     N1254   2.051       .  S
Co1214     N1230   2.041       .  S
N1215      C1253   1.357       .  A
N1215      N1222   1.319       .  A
N1215     Co1216   2.130       .  S
Co1216     N1219   2.118       .  S
Co1216     N1236   2.128       .  S
Co1216     N1223   2.117       .  S
C1217      N1255   1.359   1_554  A
N1218      N1225   1.318       .  A
N1218      N1248   1.334       .  A
N1218     Co1251   2.121       .  S
N1219      N1255   1.330       .  A
N1220      C1249   1.336       .  A
N1220      N1230   1.314       .  A
H1221      C1246   1.079       .  S
N1222      N1243   1.311       .  A
N1223      N1228   1.329       .  A
C1224      C1252   1.468       .  S
C1224      C1319   1.500       .  S
N1225      C1240   1.325       .  A
N1225     Co1247   2.044       .  S
C1226      N1254   1.333       .  A
C1226      H1260   1.078       .  S
C1229      N1250   1.348       .  A
C1229      C1326   1.472       .  S
N1230      N1236   1.319       .  A
N1231      C1257   1.326       .  A
N1231      N1233   1.317       .  A
N1231     Co1247   2.033       .  S
N1232      C1246   1.340       .  A
N1233      N1261   1.333       .  A
N1233     Co1251   2.120       .  S
H1234      C1257   1.081       .  S
H1235      C1252   1.079       .  S
N1237     Co1251   2.102       .  S
N1238      N1250   1.317       .  A
N1238     Co1247   2.057       .  S
C1239      N1243   1.334       .  A
C1239      C1253   1.484       .  S
C1239      C1566   1.483       .  S
C1240      C1259   1.442       .  S
C1240      H1244   1.081       .  S
N1241      C1252   1.341       .  A
N1241     Co1251   2.099       .  S
C1245      N1261   1.361       .  A
C1245      C1257   1.441       .  S
C1245      C1496   1.473       .  S
Co1247    Cl1258   2.420       .  S
N1248      C1259   1.362       .  A
C1249      C1509   1.482       .  S
Co1251    Cl1258   2.463       .  S
C1259      C1559   1.479       .  S
C1262      N1280   1.361       .  A
C1262      C1299   1.442       .  S
C1262      C1666   1.475       .  S
N1263      N1280   1.332       .  A
N1263      N1285   1.317       .  A
N1263     Co1300   2.115       .  S
C1264      N1289   1.337       .  A
C1264      C1302   1.462       .  S
C1264      H1309   1.080       .  S
H1265      C1306   1.078       .  S
C1266      N1290   1.355       .  A
C1266      C1270   1.482       .  S
C1266      H1295   1.081       .  S
Co1267     N1285   2.036       .  S
Co1267     N1275   2.054       .  S
Co1267     N1307   2.037       .  S
Co1267     N1283   2.051       .  S
N1268      C1306   1.333       .  A
N1268     Co1269   2.048       .  S
Co1269     N1272   2.052       .  S
Co1269     N1289   2.064       .  S
Co1269     N1276   2.038       .  S
Co1269    Cl1311   2.431       .  S
C1270      N1308   1.340       .  A
C1270      C1659   1.489       .  S
N1271      N1301   1.328       .  A
N1271     Co1304   2.118       .  S
N1272      N1290   1.319       .  A
N1272      N1308   1.318       .  A
N1273      N1283   1.318       .  A
H1274      C1299   1.082       .  S
N1275      N1296   1.318       .  A
N1276      N1294   1.318       .  A
N1276      N1281   1.312       .  A
C1277      N1281   1.336       .  A
C1277      C1305   1.486       .  S
C1277      C1439   1.490       .  S
N1278      C1293   1.342       .  A
N1278     Co1300   2.096       .  S
C1279      N1307   1.324       .  A
C1279      C1282   1.440       .  S
C1279      H1313   1.082       .  S
C1282      N1303   1.360       .  A
C1282      C1449   1.470       .  S
N1284      C1310   1.343       .  A
N1284     Co1300   2.102       .  S
N1285      C1299   1.325       .  A
N1286      N1314   1.327       .  A
N1286     Co1304   2.113       .  S
H1287      C1310   1.081       .  S
H1288      C1305   1.080       .  S
N1290     Co1304   2.129       .  S
N1291      N1303   1.332       .  A
N1291      N1307   1.318       .  A
N1291     Co1300   2.111       .  S
C1292      C1306   1.460       .  S
C1292      C1389   1.470       .  S
C1293      C1312   1.465   1_556  S
C1293      H1297   1.081       .  S
N1294      C1305   1.356       .  A
N1294     Co1304   2.129       .  S
C1298      N1314   1.356       .  A
C1298      C1316   1.499       .  S
C1302      C1426   1.473       .  S
Co1304    Cl1311   2.464       .  S
C1312      C1339   1.502       .  S
C1315      C1316   1.408       .  A
C1315      C1320   1.402       .  A
C1315      F1322   1.358       .  S
C1316      C1317   1.413       .  A
C1317      C1318   1.405       .  A
C1318      C1319   1.411       .  A
C1319      C1320   1.412       .  A
C1320      F1321   1.355       .  S
C1325      C1326   1.406       .  A
C1325      C1330   1.395       .  A
C1325      F1332   1.356       .  S
C1326      C1327   1.406       .  A
C1327      C1328   1.386       .  A
C1327      F1334   1.358       .  S
C1328      C1329   1.407       .  A
C1328      F1333   1.355       .  S
C1329      C1330   1.407       .  A
C1330      F1331   1.358       .  S
C1335      C1340   1.402   1_565  A
C1335      F1342   1.355       .  S
C1336      C1337   1.410   1_554  A
C1337      C1338   1.407   1_565  A
C1337      F1344   1.357       .  S
C1338      C1339   1.413   1_556  A
C1338      F1343   1.356       .  S
C1340      F1341   1.358       .  S
C1345      C1346   1.404       .  A
C1345      C1350   1.393       .  A
C1345      F1352   1.357       .  S
C1346      C1347   1.407       .  A
C1347      C1348   1.388       .  A
C1347      F1354   1.358       .  S
C1348      C1349   1.405       .  A
C1348      F1353   1.359       .  S
C1349      C1350   1.403       .  A
C1355      C1360   1.398       .  A
C1355      F1362   1.356       .  S
C1356      C1357   1.408       .  A
C1357      C1358   1.393       .  A
C1357      F1364   1.357       .  S
C1358      C1359   1.403       .  A
C1358      F1363   1.356       .  S
C1360      F1361   1.358       .  S
C1365      C1370   1.403   1_545  A
C1365      F1372   1.356       .  S
C1366      C1367   1.407   1_554  A
C1367      C1368   1.402   1_545  A
C1367      F1374   1.358       .  S
C1368      C1369   1.414   1_556  A
C1368      F1373   1.355       .  S
C1370      F1371   1.358       .  S
C1375      C1380   1.407   1_655  A
C1375      F1382   1.357       .  S
C1376      C1377   1.412       .  A
C1377      C1378   1.404   1_655  A
C1377      F1384   1.356       .  S
C1378      C1379   1.411       .  A
C1378      F1383   1.356       .  S
C1380      F1381   1.357       .  S
C1385      C1390   1.390       .  A
C1385      F1392   1.355       .  S
C1386      C1387   1.406       .  A
C1387      C1388   1.389       .  A
C1387      F1394   1.357       .  S
C1388      C1389   1.406       .  A
C1388      F1393   1.355       .  S
C1390      F1391   1.359       .  S
C1395      C1396   1.411       .  A
C1395      C1400   1.406   1_655  A
C1396      C1397   1.409       .  A
C1397      C1398   1.402   1_655  A
C1397      F1404   1.356       .  S
C1398      C1399   1.410       .  A
C1398      F1403   1.356       .  S
C1399      C1400   1.410       .  A
C1400      F1401   1.358       .  S
C1405      C1406   1.409       .  A
C1405      C1410   1.406       .  A
C1405      F1412   1.358       .  S
C1406      C1407   1.414       .  A
C1407      C1408   1.408       .  A
C1408      C1409   1.408       .  A
C1409      C1410   1.412       .  A
C1410      F1411   1.357       .  S
C1415      C1416   1.408       .  A
C1415      C1420   1.386       .  A
C1415      F1422   1.359       .  S
C1417      C1418   1.393       .  A
C1417      F1424   1.357       .  S
C1418      F1423   1.357       .  S
C1419      C1420   1.405       .  A
C1420      F1421   1.359       .  S
C1425      C1426   1.406       .  A
C1425      C1430   1.392       .  A
C1425      F1432   1.356       .  S
C1427      C1428   1.389       .  A
C1427      F1434   1.358       .  S
C1428      F1433   1.355       .  S
C1429      C1430   1.406       .  A
C1430      F1431   1.358       .  S
C1435      C1436   1.418       .  A
C1435      C1440   1.405       .  A
C1435      F1442   1.358       .  S
C1436      C1437   1.399       .  A
C1437      C1438   1.394       .  A
C1437      F1444   1.357       .  S
C1438      C1439   1.418       .  A
C1438      F1443   1.357       .  S
C1439      C1440   1.403       .  A
C1440      F1441   1.357       .  S
C1445      C1446   1.413       .  A
C1445      C1450   1.399       .  A
C1445      F1452   1.358       .  S
C1446      C1447   1.400       .  A
C1447      C1448   1.393       .  A
C1447      F1454   1.357       .  S
C1448      C1449   1.411       .  A
C1448      F1453   1.358       .  S
C1449      C1450   1.398       .  A
C1450      F1451   1.358       .  S
C1455      C1456   1.397       .  A
C1455      C1460   1.394       .  A
C1455      F1462   1.359       .  S
C1456      C1457   1.409       .  A
C1457      C1458   1.398       .  A
C1457      F1464   1.357       .  S
C1458      C1459   1.402       .  A
C1458      F1463   1.357       .  S
C1459      C1460   1.414       .  A
C1460      F1461   1.357       .  S
C1465      C1466   1.397       .  A
C1465      C1470   1.395       .  A
C1465      F1472   1.358       .  S
C1466      C1467   1.413       .  A
C1467      C1468   1.401       .  A
C1467      F1474   1.357       .  S
C1468      C1469   1.402       .  A
C1468      F1473   1.357       .  S
C1469      C1470   1.415       .  A
C1470      F1471   1.357       .  S
C1475      C1476   1.398       .  A
C1475      C1480   1.393       .  A
C1475      F1482   1.357       .  S
C1476      C1477   1.418       .  A
C1477      C1478   1.407       .  A
C1477      F1484   1.358       .  S
C1478      C1479   1.403       .  A
C1478      F1483   1.357       .  S
C1479      C1480   1.417       .  A
C1480      F1481   1.356       .  S
C1485      C1486   1.401       .  A
C1485      C1490   1.404       .  A
C1485      F1492   1.358       .  S
C1486      C1487   1.410       .  A
C1487      C1488   1.395       .  A
C1487      F1494   1.358       .  S
C1488      C1489   1.401       .  A
C1488      F1493   1.357       .  S
C1489      C1490   1.413       .  A
C1490      F1491   1.358       .  S
C1495      C1496   1.399       .  A
C1495      C1500   1.401       .  A
C1495      F1502   1.358       .  S
C1496      C1497   1.411       .  A
C1497      C1498   1.395       .  A
C1497      F1504   1.358       .  S
C1498      C1499   1.401       .  A
C1498      F1503   1.358       .  S
C1499      C1500   1.415       .  A
C1500      F1501   1.357       .  S
C1505      C1506   1.397       .  A
C1505      C1510   1.396       .  A
C1505      F1512   1.358       .  S
C1506      C1507   1.413       .  A
C1507      C1508   1.404       .  A
C1507      F1514   1.358       .  S
C1508      C1509   1.402       .  A
C1508      F1513   1.357       .  S
C1509      C1510   1.415       .  A
C1510      F1511   1.357       .  S
C1515      C1516   1.401       .  A
C1515      C1520   1.397       .  A
C1515      F1522   1.357       .  S
C1516      C1517   1.413       .  A
C1517      C1518   1.404       .  A
C1517      F1524   1.357       .  S
C1518      C1519   1.401       .  A
C1518      F1523   1.357       .  S
C1519      C1520   1.412       .  A
C1520      F1521   1.358       .  S
C1525      C1526   1.417       .  A
C1525      C1530   1.395       .  A
C1525      F1532   1.357       .  S
C1526      C1527   1.402       .  A
C1527      C1528   1.404       .  A
C1527      F1534   1.357       .  S
C1528      C1529   1.416       .  A
C1528      F1533   1.358       .  S
C1529      C1530   1.397       .  A
C1530      F1531   1.357       .  S
C1535      C1536   1.403       .  A
C1535      C1540   1.402       .  A
C1535      F1542   1.358       .  S
C1536      C1537   1.413       .  A
C1537      C1538   1.393       .  A
C1537      F1544   1.358       .  S
C1538      C1539   1.396       .  A
C1538      F1543   1.358       .  S
C1539      C1540   1.411       .  A
C1540      F1541   1.358       .  S
C1545      C1546   1.412       .  A
C1545      C1550   1.400       .  A
C1545      F1552   1.358       .  S
C1546      C1547   1.397       .  A
C1547      C1548   1.395       .  A
C1547      F1554   1.358       .  S
C1548      C1549   1.414       .  A
C1548      F1553   1.358       .  S
C1549      C1550   1.402       .  A
C1550      F1551   1.357       .  S
C1555      C1556   1.400       .  A
C1555      C1560   1.391       .  A
C1555      F1562   1.357       .  S
C1556      C1557   1.414       .  A
C1557      C1558   1.406       .  A
C1557      F1564   1.358       .  S
C1558      C1559   1.403       .  A
C1558      F1563   1.358       .  S
C1559      C1560   1.411       .  A
C1560      F1561   1.358       .  S
C1565      C1566   1.415       .  A
C1565      C1570   1.394       .  A
C1565      F1572   1.355       .  S
C1566      C1567   1.400       .  A
C1567      C1568   1.404       .  A
C1567      F1574   1.357       .  S
C1568      C1569   1.417       .  A
C1568      F1573   1.358       .  S
C1569      C1570   1.397       .  A
C1570      F1571   1.357       .  S
C1575      C1576   1.403       .  A
C1575      C1580   1.396       .  A
C1575      F1582   1.358       .  S
C1576      C1577   1.415       .  A
C1577      C1578   1.402       .  A
C1577      F1584   1.356       .  S
C1578      C1579   1.398       .  A
C1578      F1583   1.358       .  S
C1579      C1580   1.411       .  A
C1580      F1581   1.358       .  S
C1585      C1586   1.416       .  A
C1585      C1590   1.394       .  A
C1585      F1592   1.357       .  S
C1586      C1587   1.404       .  A
C1587      C1588   1.405       .  A
C1587      F1594   1.357       .  S
C1588      C1589   1.415       .  A
C1588      F1593   1.357       .  S
C1589      C1590   1.398       .  A
C1590      F1591   1.358       .  S
C1595      C1596   1.397       .  A
C1595      C1600   1.396       .  A
C1595      F1602   1.358       .  S
C1596      C1597   1.412       .  A
C1597      C1598   1.401       .  A
C1597      F1604   1.358       .  S
C1598      C1599   1.402       .  A
C1598      F1603   1.358       .  S
C1599      C1600   1.412       .  A
C1600      F1601   1.357       .  S
C1605      C1606   1.402       .  A
C1605      C1610   1.403       .  A
C1605      F1612   1.356       .  S
C1606      C1607   1.417       .  A
C1607      C1608   1.393       .  A
C1607      F1614   1.357       .  S
C1608      C1609   1.400       .  A
C1608      F1613   1.357       .  S
C1609      C1610   1.415       .  A
C1610      F1611   1.357       .  S
C1615      C1616   1.416       .  A
C1615      C1620   1.394       .  A
C1615      F1622   1.358       .  S
C1616      C1617   1.404       .  A
C1617      C1618   1.405       .  A
C1617      F1624   1.357       .  S
C1618      C1619   1.414       .  A
C1618      F1623   1.357       .  S
C1619      C1620   1.398       .  A
C1620      F1621   1.358       .  S
C1625      C1626   1.414       .  A
C1625      C1630   1.402       .  A
C1625      F1632   1.357       .  S
C1626      C1627   1.403       .  A
C1627      C1628   1.396       .  A
C1627      F1634   1.358       .  S
C1628      C1629   1.410       .  A
C1628      F1633   1.358       .  S
C1629      C1630   1.399       .  A
C1630      F1631   1.358       .  S
C1635      C1636   1.412       .  A
C1635      C1640   1.399       .  A
C1635      F1642   1.358       .  S
C1636      C1637   1.399       .  A
C1637      C1638   1.395       .  A
C1637      F1644   1.358       .  S
C1638      C1639   1.413       .  A
C1638      F1643   1.357       .  S
C1639      C1640   1.401       .  A
C1640      F1641   1.357       .  S
C1645      C1646   1.416       .  A
C1645      C1650   1.400       .  A
C1645      F1652   1.357       .  S
C1646      C1647   1.403       .  A
C1647      C1648   1.404       .  A
C1647      F1654   1.357       .  S
C1648      C1649   1.415       .  A
C1648      F1653   1.358       .  S
C1649      C1650   1.401       .  A
C1650      F1651   1.357       .  S
C1655      C1656   1.412       .  A
C1655      C1660   1.405       .  A
C1655      F1662   1.357       .  S
C1656      C1657   1.401       .  A
C1657      C1658   1.402       .  A
C1657      F1664   1.358       .  S
C1658      C1659   1.414       .  A
C1658      F1663   1.358       .  S
C1659      C1660   1.404       .  A
C1660      F1661   1.357       .  S
C1665      C1666   1.411       .  A
C1665      C1670   1.393       .  A
C1665      F1672   1.358       .  S
C1666      C1667   1.398       .  A
C1667      C1668   1.401       .  A
C1667      F1674   1.358       .  S
C1668      C1669   1.417       .  A
C1668      F1673   1.356       .  S
C1669      C1670   1.402       .  A
C1670      F1671   1.358       .  S
