geometry optimzed in LAMMPS
_audit_creation_date              2020-11-30 
_audit_creation_method            'lammps2cif' 
_symmetry_space_group_name_H-M    'P1' 
_symmetry_Int_Tables_number       1 
_symmetry_cell_setting            triclinic 
loop_ 
_symmetry_equiv_pos_as_xyz 
  x,y,z 
_cell_length_a                    24.54607294 
_cell_length_b                    24.62183446502956 
_cell_length_c                    44.5866177466406 
_cell_angle_alpha                 89.97764213726815 
_cell_angle_beta                  90.08995306166919 
_cell_angle_gamma                 89.97304352878115 
loop_ 
_atom_site_label 
_atom_site_type_symbol 
_atom_site_fract_x 
_atom_site_fract_y 
_atom_site_fract_z 
_atom_site_charge 
C1          C  0.71161051  0.73174530  0.22075269     0.03400
C2          C  0.67619483  0.68699462  0.22147295    -0.12700
C3          C  0.65650504  0.66675792  0.24890338     0.00900
C4          C  0.67461054  0.69048924  0.27581632    -0.11300
C5          C  0.71049439  0.73481752  0.27533280     0.03400
C6          C  0.72821015  0.75571883  0.24779169    -0.10700
H7          H  0.66342470  0.66858227  0.20054249     0.09000
H8          H  0.66046675  0.67506325  0.29719939     0.06500
H9          H  0.75516682  0.79056468  0.24742542     0.06400
C10         C  0.85492103  0.88216678  0.47097760     0.03400
C11         C  0.83147244  0.86624132  0.49834947    -0.12700
C12         C  0.85450325  0.88252365  0.02573654     0.00900
C13         C  0.89947167  0.91754431  0.02579699    -0.11300
C14         C  0.92232457  0.93565944  0.99872417     0.03400
C15         C  0.90099460  0.91618626  0.47144958    -0.10700
H16         H  0.79569225  0.84049228  0.99840169     0.09000
H17         H  0.91639449  0.93071895  0.04704780     0.06500
H18         H  0.91951823  0.92830994  0.45044978     0.06400
C19         C  0.71246305  0.36595448  0.21842454     0.03400
C20         C  0.73089178  0.34267558  0.24525978    -0.12700
C21         C  0.71394380  0.36352948  0.27295683     0.00900
C22         C  0.67794332  0.40776981  0.27367442    -0.11300
C23         C  0.65811589  0.43076706  0.24691135     0.03400
C24         C  0.67601756  0.40980625  0.21929734    -0.10700
H25         H  0.75862668  0.30843535  0.24457995     0.09000
H26         H  0.66493533  0.42363480  0.29517277     0.06500
H27         H  0.66151097  0.42718446  0.19842556     0.06400
C28         C  0.86090778  0.21717645  0.46816571     0.03400
C29         C  0.90554024  0.18158331  0.46913154    -0.12700
C30         C  0.92729060  0.16440680  0.99671067     0.00900
C31         C  0.90571667  0.18585238  0.02343223    -0.11300
C32         C  0.86028294  0.22069272  0.02292835     0.03400
C33         C  0.83766893  0.23547075  0.49511193    -0.10700
H34         H  0.92265818  0.16670794  0.44830153     0.09000
H35         H  0.92336292  0.17441819  0.04480792     0.06500
H36         H  0.80214921  0.26158150  0.99437875     0.06400
C37         C  0.35929817  0.71910561  0.22776367     0.03400
C38         C  0.39829584  0.67732090  0.22712117    -0.12700
C39         C  0.42544456  0.66101382  0.25336030     0.00900
C40         C  0.41055034  0.68438920  0.28086735    -0.11300
C41         C  0.36964538  0.72406755  0.28217934     0.03400
C42         C  0.34550189  0.74261906  0.25549142    -0.10700
H43         H  0.40804648  0.65807404  0.20594071     0.09000
H44         H  0.43005840  0.67126558  0.30145722     0.06500
H45         H  0.31524393  0.77461884  0.25641955     0.06400
C46         C  0.21601580  0.86424099  0.47804241     0.03400
C47         C  0.18021293  0.90888287  0.47700801    -0.12700
C48         C  0.15446897  0.92787039  0.00313141     0.00900
C49         C  0.16727581  0.90367320  0.03079272    -0.11300
C50         C  0.20515950  0.86115267  0.03253261     0.03400
C51         C  0.22797975  0.84051143  0.50599479    -0.10700
H52         H  0.17178884  0.92824756  0.45567249     0.09000
H53         H  0.14832171  0.91822668  0.05120909     0.06500
H54         H  0.25569852  0.80633197  0.50719768     0.06400
O55         O  0.09954036  0.09985059  0.47560387    -0.71500
O56         O  0.98769448  0.99325880  0.47482702    -0.71700
O57         O  0.99008749  0.10247092  0.47383376    -0.71600
O58         O  0.09721588  0.99072704  0.47677774    -0.71600
O59         O  0.09427613  0.99243798  0.02542098    -0.71500
O60         O  0.98773816  0.10413735  0.02248260    -0.71600
O61         O  0.98504551  0.99502990  0.02347144    -0.71500
O62         O  0.09696592  0.10158562  0.02425679    -0.71700
V63         V  0.04361132  0.04661801  0.47620043     1.35200
V64         V  0.04110840  0.04825252  0.02295086     1.35200
C65         C  0.11720503  0.11911443  0.00003820     0.77800
C66         C  0.96710824  0.97600822  0.99901031     0.77800
C67         C  0.97048693  0.12230842  0.49769366     0.77700
C68         C  0.11384896  0.97232089  0.50167048     0.77600
O69         O  0.48820801  0.49355150  0.22594634    -0.71500
O70         O  0.59620065  0.60383228  0.22515614    -0.71700
O71         O  0.59735845  0.49456323  0.22405835    -0.71600
O72         O  0.48671172  0.60239334  0.22716759    -0.71600
O73         O  0.48967116  0.60053285  0.27582237    -0.71500
O74         O  0.60051991  0.49328472  0.27271142    -0.71600
O75         O  0.59897945  0.60258019  0.27381281    -0.71500
O76         O  0.49146002  0.49149749  0.27459069    -0.71700
V77         V  0.54224547  0.54861924  0.22652745     1.35200
V78         V  0.54515247  0.54704864  0.27328417     1.35200
C79         C  0.47156390  0.47346025  0.25036914     0.77800
C80         C  0.61582578  0.62234639  0.24932358     0.77800
C81         C  0.61731634  0.47496860  0.24790183     0.77700
C82         C  0.46900140  0.61957746  0.25205420     0.77600
C83         C  0.21548755  0.22697944  0.02764883     0.03400
C84         C  0.17515404  0.18665920  0.02723686    -0.12700
C85         C  0.15986994  0.16155055  0.00025294     0.00900
C86         C  0.18527020  0.17757635  0.47345118    -0.11300
C87         C  0.22332828  0.22021249  0.47313255     0.03400
C88         C  0.23814105  0.24477339  0.00044192    -0.10700
H89         H  0.15653477  0.17422133  0.04816973     0.09000
H90         H  0.17485173  0.15748044  0.45260136     0.06500
H91         H  0.26799987  0.27715804  0.00061692     0.06400
C92         C  0.37686456  0.36220651  0.27766662     0.03400
C93         C  0.41561680  0.40407998  0.27746960    -0.12700
C94         C  0.43046090  0.42953288  0.25050233     0.00900
C95         C  0.40604481  0.41247455  0.22357673    -0.11300
C96         C  0.36937264  0.36870508  0.22317426     0.03400
C97         C  0.35517701  0.34364568  0.25039071    -0.10700
H98         H  0.43331427  0.41737990  0.29850486     0.09000
H99         H  0.41600026  0.43277215  0.20272375     0.06500
H100        H  0.32628360  0.31038789  0.25043513     0.06400
C101        C  0.35675851  0.33991475  0.30656609     0.01600
C102        C  0.32868983  0.37407883  0.32678204     0.04500
C103        C  0.30976368  0.35341628  0.35427118    -0.11600
C104        C  0.31576009  0.29776547  0.36102943     0.23800
C105        C  0.34264152  0.26328445  0.34055695    -0.12200
C106        C  0.36435705  0.28457722  0.31377958     0.05200
C107        C  0.29251948  0.27565187  0.38934803     0.27600
C108        C  0.32686179  0.26186354  0.41354629    -0.12900
C109        C  0.30456221  0.24117396  0.44032173     0.05700
C110        C  0.24734394  0.23902303  0.44418192    -0.08800
C111        C  0.21303121  0.25475662  0.42011287     0.06500
C112        C  0.23566281  0.27018910  0.39240383    -0.13200
Br113      Br  0.34853107  0.18658240  0.34890229    -0.05300
Br114      Br  0.31304789  0.44863273  0.31622739     0.00400
Br115      Br  0.35305179  0.21299330  0.47075053     0.00800
Br116      Br  0.18876025  0.28360560  0.35835064    -0.03600
Br117      Br  0.40603405  0.23819979  0.28750788     0.00900
Br118      Br  0.27544853  0.40150286  0.38279365    -0.02900
Br119      Br  0.40454465  0.27252812  0.41019398    -0.03800
Br120      Br  0.13498611  0.25938077  0.42525737     0.00200
C121        C  0.34558180  0.34939799  0.19430790     0.01600
C122        C  0.37991648  0.33325103  0.17041736     0.04500
C123        C  0.35721214  0.31616303  0.14298578    -0.11600
C124        C  0.30032694  0.31072422  0.13995555     0.23800
C125        C  0.26606174  0.32499044  0.16401482    -0.12200
C126        C  0.28838854  0.34663914  0.19054357     0.05200
C127        C  0.27679817  0.28923654  0.11157407     0.27600
C128        C  0.25199352  0.32468793  0.09078356    -0.12900
C129        C  0.23032600  0.30422965  0.06377570     0.05700
C130        C  0.23573064  0.24856422  0.05674136    -0.08800
C131        C  0.26115477  0.21323713  0.07751321     0.06500
C132        C  0.28030714  0.23332851  0.10511679    -0.13200
Br133      Br  0.18848485  0.31352069  0.16082691    -0.05300
Br134      Br  0.45812860  0.33116920  0.17538946     0.00400
Br135      Br  0.19128875  0.35222215  0.03708220     0.00800
Br136      Br  0.31148356  0.18422933  0.13426435    -0.03600
Br137      Br  0.24002293  0.37560567  0.22072200     0.00900
Br138      Br  0.40401188  0.30019901  0.10932676    -0.02900
Br139      Br  0.24867810  0.40152209  0.09915641    -0.03800
Br140      Br  0.27255132  0.13759498  0.06776818     0.00200
C141        C  0.33347603  0.73813459  0.19931667     0.01600
C142        C  0.36638124  0.75454241  0.17486909     0.04500
C143        C  0.34221410  0.76954340  0.14747606    -0.11600
C144        C  0.28518478  0.77434426  0.14517240     0.23800
C145        C  0.25216138  0.75987796  0.16973181    -0.12200
C146        C  0.27604582  0.73932244  0.19617712     0.05200
C147        C  0.26068929  0.79695341  0.11728216     0.27600
C148        C  0.26594217  0.85282559  0.11100998    -0.12900
C149        C  0.24828581  0.87374245  0.08327401     0.05700
C150        C  0.22228742  0.83940048  0.06222815    -0.08800
C151        C  0.21411527  0.78409511  0.06935565     0.06500
C152        C  0.23471181  0.76262404  0.09638895    -0.13200
Br153      Br  0.17420778  0.76932507  0.16729034    -0.05300
Br154      Br  0.44454244  0.76080985  0.17905686     0.00400
Br155      Br  0.26309709  0.94886382  0.07370980     0.00800
Br156      Br  0.22904129  0.68580534  0.10437415    -0.03600
Br157      Br  0.22949761  0.70998913  0.22709528     0.00900
Br158      Br  0.38725625  0.78321812  0.11278603    -0.02900
Br159      Br  0.29823201  0.90059135  0.14046786    -0.03800
Br160      Br  0.17292418  0.73800965  0.04264961     0.00200
C161        C  0.24055494  0.84235339  0.44984357     0.01600
C162        C  0.29778378  0.83649910  0.44701478     0.04500
C163        C  0.32037793  0.81481007  0.42054242    -0.11600
C164        C  0.28667059  0.80278867  0.39581857     0.23800
C165        C  0.22988289  0.80991510  0.39821407    -0.12200
C166        C  0.20671501  0.82738259  0.42542891     0.05200
C167        C  0.31058333  0.78219020  0.36731022     0.27600
C168        C  0.33785774  0.81791814  0.34763743    -0.12900
C169        C  0.35881067  0.79860201  0.32023365     0.05700
C170        C  0.35030912  0.74411244  0.31169321    -0.08800
C171        C  0.32281014  0.70845691  0.33133210     0.06500
C172        C  0.30439026  0.72709304  0.35937240    -0.12800
Br173      Br  0.18376700  0.79613052  0.36388344    -0.05300
Br174      Br  0.34631180  0.86087698  0.47840439     0.00400
Br175      Br  0.40069608  0.84630359  0.29482419     0.00800
Br176      Br  0.27055856  0.67709618  0.38702896    -0.03600
Br177      Br  0.12830076  0.82708485  0.42939883     0.00900
Br178      Br  0.39765404  0.80073268  0.41814757    -0.02900
Br179      Br  0.34546930  0.89364655  0.35795825    -0.03800
Br180      Br  0.30776376  0.63459147  0.31928222     0.00200
C181        C  0.83581106  0.24082162  0.05150282     0.01600
C182        C  0.81896007  0.20382129  0.07397781     0.04500
C183        C  0.79918415  0.22316759  0.10163463    -0.11600
C184        C  0.79053765  0.27921235  0.10589577     0.23800
C185        C  0.80392942  0.31593701  0.08286526    -0.12200
C186        C  0.82935966  0.29718565  0.05662342     0.05200
C187        C  0.77021964  0.30022136  0.13505077     0.27600
C188        C  0.71516037  0.29340795  0.14333324    -0.12900
C189        C  0.69650525  0.31372937  0.17099034     0.05700
C190        C  0.73177880  0.34423282  0.18941294    -0.08800
C191        C  0.78607497  0.35304410  0.18046990     0.06500
C192        C  0.80590163  0.32902858  0.15409590    -0.13200
Br193      Br  0.78800343  0.39242334  0.08752872    -0.05300
Br194      Br  0.82027967  0.12651885  0.06680469     0.00400
Br195      Br  0.62313137  0.29863654  0.18404880     0.00800
Br196      Br  0.88226772  0.33514529  0.14421530    -0.03600
Br197      Br  0.85993379  0.34990176  0.02966014     0.00900
Br198      Br  0.78601162  0.17311186  0.13416389    -0.02900
Br199      Br  0.66504867  0.25740587  0.11653995    -0.03800
Br200      Br  0.83246831  0.40079010  0.20332738     0.00200
C201        C  0.73405419  0.33879612  0.30118311     0.01600
C202        C  0.69771351  0.31205918  0.32076409     0.04500
C203        C  0.71696753  0.28989330  0.34790413    -0.11600
C204        C  0.77318730  0.29091275  0.35452679     0.23800
C205        C  0.80979472  0.31487401  0.33408222    -0.12200
C206        C  0.78995066  0.34126757  0.30837845     0.05200
C207        C  0.79376254  0.27119661  0.38392383     0.27600
C208        C  0.81385099  0.30902129  0.40490671    -0.12900
C209        C  0.83976998  0.29081715  0.43109506     0.05700
C210        C  0.83828060  0.23537742  0.43892124    -0.08800
C211        C  0.81512712  0.19771247  0.41872876     0.06500
C212        C  0.79582007  0.21521819  0.39056700    -0.13200
Br213      Br  0.88737329  0.31174097  0.34138250    -0.05300
Br214      Br  0.62170808  0.30491560  0.31026819     0.00400
Br215      Br  0.88278461  0.34125218  0.45397423     0.00800
Br216      Br  0.77390122  0.16254637  0.36086018    -0.03600
Br217      Br  0.83885556  0.38486755  0.28465051     0.00900
Br218      Br  0.66609119  0.25983364  0.37640181    -0.02900
Br219      Br  0.80552729  0.38606698  0.39795165    -0.03800
Br220      Br  0.80806949  0.12258645  0.42992948     0.00200
C221        C  0.72974008  0.75967559  0.30365486     0.01600
C222        C  0.69377035  0.79033347  0.32158350     0.04500
C223        C  0.71221839  0.81322979  0.34869566    -0.11600
C224        C  0.76734367  0.80788072  0.35715245     0.23800
C225        C  0.80376497  0.77930128  0.33852566    -0.12200
C226        C  0.78451551  0.75337278  0.31255434     0.05200
C227        C  0.78654277  0.82796872  0.38670925     0.27600
C228        C  0.79639618  0.88359904  0.39151770    -0.12900
C229        C  0.81577824  0.90156496  0.41956907     0.05700
C230        C  0.83099940  0.86353761  0.44191029    -0.08800
C231        C  0.82297091  0.80754579  0.43628389     0.06500
C232        C  0.79768925  0.79035167  0.40966262    -0.13200
Br233      Br  0.88017277  0.77540749  0.34881319    -0.05300
Br234      Br  0.61936713  0.80126598  0.30890008     0.00400
Br235      Br  0.81838637  0.97836202  0.42753384     0.00800
Br236      Br  0.77823448  0.71484259  0.40445733    -0.03600
Br237      Br  0.83227989  0.70560847  0.29067753     0.00900
Br238      Br  0.66178576  0.85058066  0.37465562    -0.02900
Br239      Br  0.78463131  0.93488774  0.35938873    -0.03800
Br240      Br  0.85110070  0.75306367  0.46307818     0.00200
C241        C  0.73093147  0.75414960  0.19172758     0.01600
C242        C  0.69337687  0.77500383  0.17058442     0.04500
C243        C  0.71200889  0.79518094  0.14289121    -0.11600
C244        C  0.76837743  0.79932103  0.13734733     0.23800
C245        C  0.80591161  0.78118587  0.15908127    -0.12200
C246        C  0.78723270  0.75583761  0.18532547     0.05200
C247        C  0.78862809  0.82093308  0.10836837     0.27600
C248        C  0.81333308  0.78545649  0.08766202    -0.12900
C249        C  0.83791270  0.80636231  0.06172390     0.05700
C250        C  0.83217621  0.86177501  0.05439594    -0.08800
C251        C  0.80584307  0.89708655  0.07464557     0.06500
C252        C  0.78613831  0.87705063  0.10214859    -0.13200
Br253      Br  0.88314127  0.79185576  0.15305743    -0.05300
Br254      Br  0.61663632  0.77848480  0.17987130     0.00400
Br255      Br  0.88461181  0.76010669  0.03830838     0.00800
Br256      Br  0.75760663  0.92657823  0.13176772    -0.03600
Br257      Br  0.83901270  0.71975752  0.21102812     0.00900
Br258      Br  0.66039086  0.81621627  0.11231066    -0.02900
Br259      Br  0.81373576  0.70806000  0.09487744    -0.03800
Br260      Br  0.79637934  0.97271287  0.06470283     0.00200
C261        C  0.71161061  0.73174525  0.72075267     0.03400
C262        C  0.67619490  0.68699460  0.72147294    -0.12700
C263        C  0.65650502  0.66675799  0.74890337     0.00900
C264        C  0.67461052  0.69048934  0.77581630    -0.11300
C265        C  0.71049442  0.73481758  0.77533278     0.03400
C266        C  0.72821025  0.75571880  0.74779166    -0.10700
H267        H  0.66342477  0.66858222  0.70054249     0.09000
H268        H  0.66046675  0.67506342  0.79719938     0.06500
H269        H  0.75516700  0.79056464  0.74742536     0.06400
C270        C  0.85492104  0.88216674  0.97097760     0.03400
C271        C  0.83147250  0.86624126  0.99834947    -0.12700
C272        C  0.85450327  0.88252363  0.52573653     0.00900
C273        C  0.89947171  0.91754425  0.52579699    -0.11300
C274        C  0.92232459  0.93565944  0.49872418     0.03400
C275        C  0.90099458  0.91618625  0.97144958    -0.10700
H276        H  0.79569216  0.84049242  0.49840168     0.09000
H277        H  0.91639454  0.93071882  0.54704780     0.06500
H278        H  0.91951814  0.92830998  0.95044976     0.06400
C279        C  0.71246311  0.36595448  0.71842455     0.03400
C280        C  0.73089185  0.34267554  0.74525977    -0.12700
C281        C  0.71394378  0.36352935  0.77295683     0.00900
C282        C  0.67794327  0.40776966  0.77367444    -0.11300
C283        C  0.65811593  0.43076702  0.74691137     0.03400
C284        C  0.67601760  0.40980622  0.71929736    -0.10700
H285        H  0.75862683  0.30843539  0.74457993     0.09000
H286        H  0.66493526  0.42363461  0.79517280     0.06500
H287        H  0.66151106  0.42718450  0.69842557     0.06400
C288        C  0.86090781  0.21717649  0.96816570     0.03400
C289        C  0.90554030  0.18158336  0.96913153    -0.12700
C290        C  0.92729057  0.16440681  0.49671068     0.00900
C291        C  0.90571670  0.18585241  0.52343225    -0.11300
C292        C  0.86028291  0.22069264  0.52292836     0.03400
C293        C  0.83766899  0.23547084  0.99511191    -0.10700
H294        H  0.92265818  0.16670800  0.94830151     0.09000
H295        H  0.92336308  0.17441832  0.54480792     0.06500
H296        H  0.80214918  0.26158141  0.49437879     0.06400
C297        C  0.35929815  0.71910557  0.72776367     0.03400
C298        C  0.39829587  0.67732090  0.72712119    -0.12700
C299        C  0.42544456  0.66101383  0.75336031     0.00900
C300        C  0.41055037  0.68438926  0.78086735    -0.11300
C301        C  0.36964538  0.72406759  0.78217935     0.03400
C302        C  0.34550190  0.74261910  0.75549141    -0.10700
H303        H  0.40804659  0.65807407  0.70594074     0.09000
H304        H  0.43005846  0.67126568  0.80145722     0.06500
H305        H  0.31524396  0.77461891  0.75641952     0.06400
C306        C  0.21601573  0.86424085  0.97804242     0.03400
C307        C  0.18021285  0.90888275  0.97700803    -0.12700
C308        C  0.15446901  0.92787051  0.50313138     0.00900
C309        C  0.16727586  0.90367332  0.53079269    -0.11300
C310        C  0.20515950  0.86115275  0.53253261     0.03400
C311        C  0.22797972  0.84051134  0.00599480    -0.10700
H312        H  0.17178872  0.92824748  0.95567253     0.09000
H313        H  0.14832173  0.91822685  0.55120905     0.06500
H314        H  0.25569855  0.80633186  0.00719768     0.06400
O315        O  0.09954038  0.09985046  0.97560386    -0.71500
O316        O  0.98769455  0.99325865  0.97482698    -0.71700
O317        O  0.99008743  0.10247075  0.97383375    -0.71600
O318        O  0.09721596  0.99072696  0.97677776    -0.71600
O319        O  0.09427620  0.99243813  0.52542097    -0.71500
O320        O  0.98773815  0.10413743  0.52248261    -0.71600
O321        O  0.98504559  0.99502988  0.52347149    -0.71500
O322        O  0.09696586  0.10158576  0.52425679    -0.71700
V323        V  0.04361134  0.04661788  0.97620042     1.35200
V324        V  0.04110841  0.04825262  0.52295088     1.35200
C325        C  0.11720498  0.11911455  0.50003821     0.77800
C326        C  0.96710826  0.97600826  0.49901035     0.77800
C327        C  0.97048691  0.12230831  0.99769365     0.77700
C328        C  0.11384896  0.97232079  0.00167051     0.77600
O329        O  0.48820810  0.49355140  0.72594634    -0.71500
O330        O  0.59620061  0.60383230  0.72515615    -0.71700
O331        O  0.59735848  0.49456318  0.72405836    -0.71600
O332        O  0.48671175  0.60239334  0.72716760    -0.71600
O333        O  0.48967113  0.60053282  0.77582237    -0.71500
O334        O  0.60052003  0.49328479  0.77271143    -0.71600
O335        O  0.59897949  0.60258021  0.77381282    -0.71500
O336        O  0.49146001  0.49149752  0.77459070    -0.71700
V337        V  0.54224550  0.54861921  0.72652745     1.35200
V338        V  0.54515249  0.54704865  0.77328417     1.35200
C339        C  0.47156392  0.47346023  0.75036914     0.77800
C340        C  0.61582576  0.62234644  0.74932358     0.77800
C341        C  0.61731642  0.47496860  0.74790184     0.77700
C342        C  0.46900140  0.61957745  0.75205421     0.77600
C343        C  0.21548756  0.22697940  0.52764885     0.03400
C344        C  0.17515409  0.18665915  0.52723689    -0.12700
C345        C  0.15986994  0.16155058  0.50025298     0.00900
C346        C  0.18527015  0.17757641  0.97345116    -0.11300
C347        C  0.22332824  0.22021257  0.97313252     0.03400
C348        C  0.23814108  0.24477335  0.50044193    -0.10700
H349        H  0.15653492  0.17422121  0.54816981     0.09000
H350        H  0.17485165  0.15748052  0.95260130     0.06500
H351        H  0.26799988  0.27715795  0.50061692     0.06400
C352        C  0.37686457  0.36220649  0.77766662     0.03400
C353        C  0.41561675  0.40408004  0.77746961    -0.12700
C354        C  0.43046084  0.42953292  0.75050234     0.00900
C355        C  0.40604476  0.41247460  0.72357674    -0.11300
C356        C  0.36937263  0.36870507  0.72317426     0.03400
C357        C  0.35517706  0.34364568  0.75039071    -0.10700
H358        H  0.43331425  0.41737995  0.79850487     0.09000
H359        H  0.41600026  0.43277217  0.70272374     0.06500
H360        H  0.32628370  0.31038779  0.75043513     0.06400
C361        C  0.35675854  0.33991466  0.80656608     0.01600
C362        C  0.32868979  0.37407871  0.82678202     0.04500
C363        C  0.30976366  0.35341624  0.85427116    -0.11600
C364        C  0.31576009  0.29776544  0.86102942     0.23800
C365        C  0.34264152  0.26328435  0.84055694    -0.12200
C366        C  0.36435708  0.28457711  0.81377957     0.05200
C367        C  0.29251947  0.27565194  0.88934802     0.27600
C368        C  0.32686178  0.26186369  0.91354630    -0.12900
C369        C  0.30456220  0.24117407  0.94032172     0.05700
C370        C  0.24734392  0.23902308  0.94418190    -0.08800
C371        C  0.21303119  0.25475675  0.92011284     0.06500
C372        C  0.23566279  0.27018926  0.89240380    -0.13200
Br373      Br  0.34853106  0.18658224  0.84890229    -0.05300
Br374      Br  0.31304787  0.44863259  0.81622738     0.00400
Br375      Br  0.35305179  0.21299347  0.97075054     0.00800
Br376      Br  0.18876029  0.28360574  0.85835051    -0.03600
Br377      Br  0.40603403  0.23819962  0.78750788     0.00900
Br378      Br  0.27544857  0.40150294  0.88279363    -0.02900
Br379      Br  0.40454464  0.27252829  0.91019399    -0.03800
Br380      Br  0.13498612  0.25938096  0.92525736     0.00200
C381        C  0.34558180  0.34939786  0.69430792     0.01600
C382        C  0.37991647  0.33325090  0.67041738     0.04500
C383        C  0.35721212  0.31616304  0.64298578    -0.11600
C384        C  0.30032693  0.31072414  0.63995556     0.23800
C385        C  0.26606174  0.32499023  0.66401486    -0.12200
C386        C  0.28838853  0.34663898  0.69054360     0.05200
C387        C  0.27679817  0.28923652  0.61157407     0.27600
C388        C  0.25199350  0.32468793  0.59078358    -0.12900
C389        C  0.23032599  0.30422961  0.56377572     0.05700
C390        C  0.23573065  0.24856420  0.55674137    -0.08800
C391        C  0.26115476  0.21323712  0.57751322     0.06500
C392        C  0.28030714  0.23332850  0.60511679    -0.13200
Br393      Br  0.18848486  0.31352046  0.66082692    -0.05300
Br394      Br  0.45812860  0.33116898  0.67538948     0.00400
Br395      Br  0.19128873  0.35222197  0.53708221     0.00800
Br396      Br  0.31148358  0.18422942  0.63426437    -0.03600
Br397      Br  0.24002295  0.37560580  0.72072198     0.00900
Br398      Br  0.40401188  0.30019918  0.60932675    -0.02900
Br399      Br  0.24867811  0.40152213  0.59915641    -0.03800
Br400      Br  0.27255134  0.13759504  0.56776818     0.00200
C401        C  0.33347602  0.73813441  0.69931665     0.01600
C402        C  0.36638123  0.75454222  0.67486908     0.04500
C403        C  0.34221410  0.76954324  0.64747606    -0.11600
C404        C  0.28518478  0.77434424  0.64517241     0.23800
C405        C  0.25216137  0.75987785  0.66973179    -0.12200
C406        C  0.27604581  0.73932226  0.69617709     0.05200
C407        C  0.26068930  0.79695343  0.61728217     0.27600
C408        C  0.26594216  0.85282565  0.61100999    -0.12900
C409        C  0.24828579  0.87374252  0.58327401     0.05700
C410        C  0.22228739  0.83940053  0.56222815    -0.08800
C411        C  0.21411525  0.78409511  0.56935566     0.06500
C412        C  0.23471181  0.76262403  0.59638896    -0.13200
Br413      Br  0.17420780  0.76932522  0.66729036    -0.05300
Br414      Br  0.44454241  0.76080999  0.67905688     0.00400
Br415      Br  0.26309707  0.94886394  0.57370981     0.00800
Br416      Br  0.22904130  0.68580524  0.60437415    -0.03600
Br417      Br  0.22949757  0.70998927  0.72709531     0.00900
Br418      Br  0.38725624  0.78321789  0.61278603    -0.02900
Br419      Br  0.29823200  0.90059148  0.64046786    -0.03800
Br420      Br  0.17292422  0.73800951  0.54264963     0.00200
C421        C  0.24055489  0.84235324  0.94984358     0.01600
C422        C  0.29778373  0.83649897  0.94701479     0.04500
C423        C  0.32037791  0.81481016  0.92054239    -0.11600
C424        C  0.28667058  0.80278880  0.89581853     0.23800
C425        C  0.22988288  0.80991515  0.89821404    -0.12200
C426        C  0.20671498  0.82738249  0.92542891     0.05200
C427        C  0.31058331  0.78219025  0.86731021     0.27600
C428        C  0.33785775  0.81791817  0.84763743    -0.12900
C429        C  0.35881067  0.79860200  0.82023365     0.05700
C430        C  0.35030912  0.74411245  0.81169322    -0.08800
C431        C  0.32281016  0.70845693  0.83133212     0.06500
C432        C  0.30439024  0.72709305  0.85937241    -0.12800
Br433      Br  0.18376699  0.79613030  0.86388345    -0.05300
Br434      Br  0.34631178  0.86087675  0.97840441     0.00400
Br435      Br  0.40069611  0.84630343  0.79482419     0.00800
Br436      Br  0.27055858  0.67709606  0.88702896    -0.03600
Br437      Br  0.12830074  0.82708499  0.92939882     0.00900
Br438      Br  0.39765405  0.80073284  0.91814756    -0.02900
Br439      Br  0.34546931  0.89364665  0.85795823    -0.03800
Br440      Br  0.30776374  0.63459155  0.81928222     0.00200
C441        C  0.83581106  0.24082157  0.55150282     0.01600
C442        C  0.81896008  0.20382131  0.57397780     0.04500
C443        C  0.79918413  0.22316764  0.60163460    -0.11600
C444        C  0.79053764  0.27921236  0.60589575     0.23800
C445        C  0.80392949  0.31593695  0.58286525    -0.12200
C446        C  0.82935967  0.29718556  0.55662341     0.05200
C447        C  0.77021966  0.30022140  0.63505077     0.27600
C448        C  0.71516036  0.29340811  0.64333322    -0.12900
C449        C  0.69650525  0.31372946  0.67099033     0.05700
C450        C  0.73177884  0.34423284  0.68941295    -0.08800
C451        C  0.78607505  0.35304403  0.68046994     0.06500
C452        C  0.80590169  0.32902848  0.65409594    -0.13200
Br453      Br  0.78800379  0.39242326  0.58752874    -0.05300
Br454      Br  0.82027968  0.12651891  0.56680469     0.00400
Br455      Br  0.62313142  0.29863635  0.68404882     0.00800
Br456      Br  0.88226776  0.33514506  0.64421532    -0.03600
Br457      Br  0.85993381  0.34990158  0.52966012     0.00900
Br458      Br  0.78601158  0.17311192  0.63416377    -0.02900
Br459      Br  0.66504866  0.25740604  0.61653995    -0.03800
Br460      Br  0.83246832  0.40079023  0.70332736     0.00200
C461        C  0.73405420  0.33879599  0.80118310     0.01600
C462        C  0.69771355  0.31205901  0.82076406     0.04500
C463        C  0.71696756  0.28989316  0.84790410    -0.11600
C464        C  0.77318733  0.29091275  0.85452679     0.23800
C465        C  0.80979472  0.31487411  0.83408224    -0.12200
C466        C  0.78995064  0.34126764  0.80837848     0.05200
C467        C  0.79376254  0.27119666  0.88392383     0.27600
C468        C  0.81385100  0.30902135  0.90490671    -0.12900
C469        C  0.83977001  0.29081722  0.93109505     0.05700
C470        C  0.83828062  0.23537746  0.93892122    -0.08800
C471        C  0.81512711  0.19771254  0.91872873     0.06500
C472        C  0.79582005  0.21521827  0.89056699    -0.13200
Br473      Br  0.88737329  0.31174114  0.84138251    -0.05300
Br474      Br  0.62170806  0.30491573  0.81026821     0.00400
Br475      Br  0.88278458  0.34125228  0.95397422     0.00800
Br476      Br  0.77390120  0.16254650  0.86086016    -0.03600
Br477      Br  0.83885552  0.38486771  0.78465053     0.00900
Br478      Br  0.66609117  0.25983378  0.87640183    -0.02900
Br479      Br  0.80552729  0.38606705  0.89795166    -0.03800
Br480      Br  0.80806950  0.12258653  0.92992931     0.00200
C481        C  0.72974006  0.75967559  0.80365487     0.01600
C482        C  0.69377032  0.79033341  0.82158354     0.04500
C483        C  0.71221840  0.81322984  0.84869566    -0.11600
C484        C  0.76734368  0.80788067  0.85715247     0.23800
C485        C  0.80376496  0.77930120  0.83852568    -0.12200
C486        C  0.78451550  0.75337281  0.81255434     0.05200
C487        C  0.78654279  0.82796865  0.88670927     0.27600
C488        C  0.79639618  0.88359898  0.89151772    -0.12900
C489        C  0.81577823  0.90156495  0.91956908     0.05700
C490        C  0.83099939  0.86353756  0.94191031    -0.08800
C491        C  0.82297091  0.80754571  0.93628390     0.06500
C492        C  0.79768926  0.79035157  0.90966264    -0.13200
Br493      Br  0.88017276  0.77540727  0.84881321    -0.05300
Br494      Br  0.61936714  0.80126613  0.80890009     0.00400
Br495      Br  0.81838636  0.97836211  0.92753383     0.00800
Br496      Br  0.77823449  0.71484242  0.90445734    -0.03600
Br497      Br  0.83227991  0.70560861  0.79067752     0.00900
Br498      Br  0.66178579  0.85058082  0.87465561    -0.02900
Br499      Br  0.78463131  0.93488755  0.85938873    -0.03800
Br500      Br  0.85110068  0.75306353  0.96307817     0.00200
C501        C  0.73093150  0.75414951  0.69172754     0.01600
C502        C  0.69337687  0.77500377  0.67058440     0.04500
C503        C  0.71200888  0.79518094  0.64289121    -0.11600
C504        C  0.76837743  0.79932106  0.63734731     0.23800
C505        C  0.80591160  0.78118585  0.65908124    -0.12200
C506        C  0.78723269  0.75583751  0.68532541     0.05200
C507        C  0.78862811  0.82093307  0.60836836     0.27600
C508        C  0.81333310  0.78545645  0.58766203    -0.12900
C509        C  0.83791274  0.80636228  0.56172391     0.05700
C510        C  0.83217621  0.86177502  0.55439593    -0.08800
C511        C  0.80584306  0.89708659  0.57464556     0.06500
C512        C  0.78613832  0.87705063  0.60214858    -0.13200
Br513      Br  0.88314128  0.79185557  0.65305742    -0.05300
Br514      Br  0.61663631  0.77848457  0.67987130     0.00400
Br515      Br  0.88461177  0.76010654  0.53830840     0.00800
Br516      Br  0.75760660  0.92657809  0.63176774    -0.03600
Br517      Br  0.83901271  0.71975766  0.71102813     0.00900
Br518      Br  0.66039084  0.81621606  0.61231065    -0.02900
Br519      Br  0.81373575  0.70805992  0.59487744    -0.03800
Br520      Br  0.79637935  0.97271297  0.56470284     0.00200
loop_ 
_geom_bond_atom_site_label_1 
_geom_bond_atom_site_label_2 
_geom_bond_distance 
_geom_bond_site_symmetry_2 
_ccdc_geom_bond_type 
C1            C2   1.404       .  A
C1            C6   1.403       .  A
C1          C241   1.485       .  S
C2            C3   1.407       .  A
C2            H7   1.084       .  S
C3            C4   1.406       .  A
C3           C80   1.481       .  S
C4            C5   1.403       .  A
C4            H8   1.084       .  S
C5            C6   1.401       .  A
C5          C221   1.480       .  S
C6            H9   1.084       .  S
C10          C11   1.406       .  A
C10          C15   1.408       .  A
C10         C230   1.494       .  S
C11         C272   1.403       .  A
C11         H276   1.083       .  S
C12          C13   1.401       .  A
C12         C271   1.403   1_554  A
C12         C250   1.482       .  S
C13          C14   1.404   1_554  A
C13          H17   1.084       .  S
C14         C275   1.408       .  A
C14          C66   1.482       .  S
C15         C274   1.408       .  A
C15          H18   1.083       .  S
H16         C271   1.083       .  S
C19          C20   1.401       .  A
C19          C24   1.402       .  A
C19         C190   1.479       .  S
C20          C21   1.401       .  A
C20          H25   1.084       .  S
C21          C22   1.403       .  A
C21         C201   1.482       .  S
C22          C23   1.407       .  A
C22          H26   1.084       .  S
C23          C24   1.406       .  A
C23          C81   1.479       .  S
C24          H27   1.084       .  S
C28          C29   1.403       .  A
C28          C33   1.405       .  A
C28         C210   1.485       .  S
C29         C290   1.405       .  A
C29          H34   1.084       .  S
C30          C31   1.407   1_556  A
C30         C289   1.405       .  A
C30         C327   1.483       .  S
C31          C32   1.407       .  A
C31          H35   1.083       .  S
C32         C293   1.406   1_554  A
C32         C181   1.494       .  S
C33         C292   1.406       .  A
C33         H296   1.083       .  S
H36         C293   1.083       .  S
C37          C38   1.405       .  A
C37          C42   1.407       .  A
C37         C141   1.492       .  S
C38          C39   1.404       .  A
C38          H43   1.084       .  S
C39          C40   1.404       .  A
C39          C82   1.479       .  S
C40          C41   1.402       .  A
C40          H44   1.084       .  S
C41          C42   1.405       .  A
C41         C170   1.484       .  S
C42          H45   1.083       .  S
C46          C47   1.408       .  A
C46          C51   1.407       .  A
C46         C161   1.496       .  S
C47         C308   1.406       .  A
C47          H52   1.083       .  S
C48          C49   1.405       .  A
C48         C307   1.406   1_554  A
C48         C328   1.482       .  S
C49          C50   1.402       .  A
C49          H53   1.084       .  S
C50         C311   1.405       .  A
C50         C150   1.488       .  S
C51         C310   1.405       .  A
C51          H54   1.083       .  S
O55          V63   1.899       .  S
O55         C325   1.265       .  A
O56          V63   1.901   1_665  S
O56         C326   1.265       .  A
O57          V63   1.904   1_655  S
O57          C67   1.266       .  A
O58          V63   1.904   1_565  S
O58          C68   1.266       .  A
O59          V64   1.898   1_565  S
O59         C328   1.265       .  A
O60          V64   1.900   1_655  S
O60         C327   1.265   1_554  A
O61          V64   1.901   1_665  S
O61          C66   1.266   1_554  A
O62          V64   1.900       .  S
O62          C65   1.265       .  A
V63         V324   2.086       .  T
V64         V323   2.086   1_554  T
C65          C85   1.480       .  S
C65         O315   1.265   1_554  A
C66         O316   1.265       .  A
C67         C290   1.483       .  S
C67         O320   1.265       .  A
C68         C308   1.482       .  S
C68         O319   1.265       .  A
O69          V77   1.897       .  S
O69          C79   1.264       .  A
O70          V77   1.899       .  S
O70          C80   1.265       .  A
O71          V77   1.901       .  S
O71          C81   1.265       .  A
O72          V77   1.900       .  S
O72          C82   1.265       .  A
O73          V78   1.898       .  S
O73          C82   1.264       .  A
O74          V78   1.897       .  S
O74          C81   1.264       .  A
O75          V78   1.902       .  S
O75          C80   1.265       .  A
O76          V78   1.901       .  S
O76          C79   1.265       .  A
V77          V78   2.086       .  T
C79          C94   1.479       .  S
C83          C84   1.402       .  A
C83          C88   1.405       .  A
C83         C130   1.487       .  S
C84          C85   1.404       .  A
C84          H89   1.084       .  S
C85         C346   1.405   1_554  A
C86          C87   1.406       .  A
C86         C345   1.405       .  A
C86          H90   1.084       .  S
C87         C348   1.407       .  A
C87         C110   1.493       .  S
C88         C347   1.407   1_554  A
C88          H91   1.083       .  S
C92          C93   1.403       .  A
C92          C97   1.404       .  A
C92         C101   1.486       .  S
C93          C94   1.404       .  A
C93          H98   1.084       .  S
C94          C95   1.405       .  A
C95          C96   1.405       .  A
C95          H99   1.084       .  S
C96          C97   1.406       .  A
C96         C121   1.491       .  S
C97         H100   1.084       .  S
C101        C102   1.413       .  A
C101        C106   1.412       .  A
C102        C103   1.407       .  A
C102       Br114   1.933       .  S
C103        C104   1.410       .  A
C103       Br118   1.932       .  S
C104        C105   1.411       .  A
C104        C107   1.489       .  S
C105        C106   1.409       .  A
C105       Br113   1.930       .  S
C106       Br117   1.930       .  S
C107        C108   1.409       .  A
C107        C112   1.409       .  A
C108        C109   1.409       .  A
C108       Br119   1.931       .  S
C109        C110   1.416       .  A
C109       Br115   1.932       .  S
C110        C111   1.417       .  A
C111        C112   1.408       .  A
C111       Br120   1.933       .  S
C112       Br116   1.932       .  S
C121        C122   1.416       .  A
C121        C126   1.415       .  A
C122        C123   1.408       .  A
C122       Br134   1.933       .  S
C123        C124   1.409       .  A
C123       Br138   1.932       .  S
C124        C125   1.409       .  A
C124        C127   1.488       .  S
C125        C126   1.408       .  A
C125       Br133   1.930       .  S
C126       Br137   1.932       .  S
C127        C128   1.410       .  A
C127        C132   1.409       .  A
C128        C129   1.409       .  A
C128       Br139   1.930       .  S
C129        C130   1.412       .  A
C129       Br135   1.930       .  S
C130        C131   1.415       .  A
C131        C132   1.407       .  A
C131       Br140   1.933       .  S
C132       Br136   1.932       .  S
C141        C142   1.417       .  A
C141        C146   1.417       .  A
C142        C143   1.406       .  A
C142       Br154   1.934       .  S
C143        C144   1.408       .  A
C143       Br158   1.932       .  S
C144        C145   1.409       .  A
C144        C147   1.488       .  S
C145        C146   1.410       .  A
C145       Br153   1.930       .  S
C146       Br157   1.932       .  S
C147        C148   1.410       .  A
C147        C152   1.410       .  A
C148        C149   1.407       .  A
C148       Br159   1.933       .  S
C149        C150   1.415       .  A
C149       Br155   1.933       .  S
C150        C151   1.413       .  A
C151        C152   1.409       .  A
C151       Br160   1.930       .  S
C152       Br156   1.930       .  S
C161        C162   1.418       .  A
C161        C166   1.417       .  A
C162        C163   1.410       .  A
C162       Br174   1.932       .  S
C163        C164   1.409       .  A
C163       Br178   1.931       .  S
C164        C165   1.409       .  A
C164        C167   1.490       .  S
C165        C166   1.408       .  A
C165       Br173   1.933       .  S
C166       Br177   1.933       .  S
C167        C168   1.412       .  A
C167        C172   1.410       .  A
C168        C169   1.409       .  A
C168       Br179   1.930       .  S
C169        C170   1.410       .  A
C169       Br175   1.930       .  S
C170        C171   1.412       .  A
C171        C172   1.407       .  A
C171       Br180   1.932       .  S
C172       Br176   1.931       .  S
C181        C182   1.416       .  A
C181        C186   1.415       .  A
C182        C183   1.409       .  A
C182       Br194   1.930       .  S
C183        C184   1.409       .  A
C183       Br198   1.931       .  S
C184        C185   1.407       .  A
C184        C187   1.486       .  S
C185        C186   1.405       .  A
C185       Br193   1.935       .  S
C186       Br197   1.922       .  S
C187        C188   1.412       .  A
C187        C192   1.411       .  A
C188        C189   1.408       .  A
C188       Br199   1.930       .  S
C189        C190   1.410       .  A
C189       Br195   1.930       .  S
C190        C191   1.409       .  A
C191        C192   1.404       .  A
C191       Br200   1.928       .  S
C192       Br196   1.932       .  S
C201        C202   1.412       .  A
C201        C206   1.410       .  A
C202        C203   1.408       .  A
C202       Br214   1.931       .  S
C203        C204   1.411       .  A
C203       Br218   1.931       .  S
C204        C205   1.410       .  A
C204        C207   1.485       .  S
C205        C206   1.404       .  A
C205       Br213   1.933       .  S
C206       Br217   1.928       .  S
C207        C208   1.409       .  A
C207        C212   1.411       .  A
C208        C209   1.402       .  A
C208       Br219   1.933       .  S
C209        C210   1.409       .  A
C209       Br215   1.923       .  S
C210        C211   1.412       .  A
C211        C212   1.409       .  A
C211       Br220   1.924       .  S
C212       Br216   1.930       .  S
C221        C222   1.411       .  A
C221        C226   1.410       .  A
C222        C223   1.408       .  A
C222       Br234   1.930       .  S
C223        C224   1.410       .  A
C223       Br238   1.929       .  S
C224        C225   1.409       .  A
C224        C227   1.484       .  S
C225        C226   1.404       .  A
C225       Br233   1.932       .  S
C226       Br237   1.927       .  S
C227        C228   1.407       .  A
C227        C232   1.406       .  A
C228        C229   1.409       .  A
C228       Br239   1.931       .  S
C229        C230   1.416       .  A
C229       Br235   1.925       .  S
C230        C231   1.415       .  A
C231        C232   1.404       .  A
C231       Br240   1.923       .  S
C232       Br236   1.934       .  S
C241        C242   1.414       .  A
C241        C246   1.412       .  A
C242        C243   1.408       .  A
C242       Br254   1.931       .  S
C243        C244   1.410       .  A
C243       Br258   1.930       .  S
C244        C245   1.408       .  A
C244        C247   1.484       .  S
C245        C246   1.404       .  A
C245       Br253   1.933       .  S
C246       Br257   1.927       .  S
C247        C248   1.409       .  A
C247        C252   1.410       .  A
C248        C249   1.403       .  A
C248       Br259   1.933       .  S
C249        C250   1.410       .  A
C249       Br255   1.925       .  S
C250        C251   1.411       .  A
C251        C252   1.408       .  A
C251       Br260   1.928       .  S
C252       Br256   1.930       .  S
C261        C262   1.404       .  A
C261        C266   1.403       .  A
C261        C501   1.485       .  S
C262        C263   1.407       .  A
C262        H267   1.084       .  S
C263        C264   1.406       .  A
C263        C340   1.481       .  S
C264        C265   1.403       .  A
C264        H268   1.084       .  S
C265        C266   1.401       .  A
C265        C481   1.480       .  S
C266        H269   1.084       .  S
C270        C271   1.406       .  A
C270        C275   1.408       .  A
C270        C490   1.494       .  S
C272        C273   1.401       .  A
C272        C510   1.482       .  S
C273        C274   1.404       .  A
C273        H277   1.084       .  S
C274        C326   1.482       .  S
C275        H278   1.083       .  S
C279        C280   1.401       .  A
C279        C284   1.402       .  A
C279        C450   1.479       .  S
C280        C281   1.401       .  A
C280        H285   1.084       .  S
C281        C282   1.403       .  A
C281        C461   1.482       .  S
C282        C283   1.407       .  A
C282        H286   1.084       .  S
C283        C284   1.406       .  A
C283        C341   1.479       .  S
C284        H287   1.084       .  S
C288        C289   1.403       .  A
C288        C293   1.405       .  A
C288        C470   1.485       .  S
C289        H294   1.084       .  S
C290        C291   1.407       .  A
C291        C292   1.407       .  A
C291        H295   1.083       .  S
C292        C441   1.494       .  S
C297        C298   1.405       .  A
C297        C302   1.407       .  A
C297        C401   1.492       .  S
C298        C299   1.404       .  A
C298        H303   1.084       .  S
C299        C300   1.404       .  A
C299        C342   1.479       .  S
C300        C301   1.402       .  A
C300        H304   1.084       .  S
C301        C302   1.405       .  A
C301        C430   1.484       .  S
C302        H305   1.083       .  S
C306        C307   1.408       .  A
C306        C311   1.407   1_556  A
C306        C421   1.496       .  S
C307        H312   1.083       .  S
C308        C309   1.405       .  A
C309        C310   1.402       .  A
C309        H313   1.084       .  S
C310        C410   1.488       .  S
C311        H314   1.083       .  S
O315        V323   1.899       .  S
O316        V323   1.901   1_665  S
O317        V323   1.904   1_655  S
O317        C327   1.266       .  A
O318        V323   1.904   1_565  S
O318        C328   1.266   1_556  A
O319        V324   1.898   1_565  S
O320        V324   1.900   1_655  S
O321        V324   1.901   1_665  S
O321        C326   1.266       .  A
O322        V324   1.900       .  S
O322        C325   1.265       .  A
C325        C345   1.480       .  S
O329        V337   1.897       .  S
O329        C339   1.264       .  A
O330        V337   1.899       .  S
O330        C340   1.265       .  A
O331        V337   1.901       .  S
O331        C341   1.265       .  A
O332        V337   1.900       .  S
O332        C342   1.265       .  A
O333        V338   1.898       .  S
O333        C342   1.264       .  A
O334        V338   1.897       .  S
O334        C341   1.264       .  A
O335        V338   1.902       .  S
O335        C340   1.265       .  A
O336        V338   1.901       .  S
O336        C339   1.265       .  A
V337        V338   2.086       .  T
C339        C354   1.479       .  S
C343        C344   1.402       .  A
C343        C348   1.405       .  A
C343        C390   1.487       .  S
C344        C345   1.404       .  A
C344        H349   1.084       .  S
C346        C347   1.406       .  A
C346        H350   1.084       .  S
C347        C370   1.493       .  S
C348        H351   1.083       .  S
C352        C353   1.403       .  A
C352        C357   1.404       .  A
C352        C361   1.486       .  S
C353        C354   1.404       .  A
C353        H358   1.084       .  S
C354        C355   1.405       .  A
C355        C356   1.405       .  A
C355        H359   1.084       .  S
C356        C357   1.406       .  A
C356        C381   1.491       .  S
C357        H360   1.084       .  S
C361        C362   1.413       .  A
C361        C366   1.412       .  A
C362        C363   1.407       .  A
C362       Br374   1.933       .  S
C363        C364   1.410       .  A
C363       Br378   1.932       .  S
C364        C365   1.411       .  A
C364        C367   1.489       .  S
C365        C366   1.409       .  A
C365       Br373   1.930       .  S
C366       Br377   1.930       .  S
C367        C368   1.409       .  A
C367        C372   1.409       .  A
C368        C369   1.409       .  A
C368       Br379   1.931       .  S
C369        C370   1.416       .  A
C369       Br375   1.932       .  S
C370        C371   1.417       .  A
C371        C372   1.408       .  A
C371       Br380   1.933       .  S
C372       Br376   1.932       .  S
C381        C382   1.416       .  A
C381        C386   1.415       .  A
C382        C383   1.408       .  A
C382       Br394   1.933       .  S
C383        C384   1.409       .  A
C383       Br398   1.932       .  S
C384        C385   1.409       .  A
C384        C387   1.488       .  S
C385        C386   1.408       .  A
C385       Br393   1.930       .  S
C386       Br397   1.932       .  S
C387        C388   1.410       .  A
C387        C392   1.409       .  A
C388        C389   1.409       .  A
C388       Br399   1.930       .  S
C389        C390   1.412       .  A
C389       Br395   1.930       .  S
C390        C391   1.415       .  A
C391        C392   1.407       .  A
C391       Br400   1.933       .  S
C392       Br396   1.932       .  S
C401        C402   1.417       .  A
C401        C406   1.417       .  A
C402        C403   1.406       .  A
C402       Br414   1.934       .  S
C403        C404   1.408       .  A
C403       Br418   1.932       .  S
C404        C405   1.409       .  A
C404        C407   1.488       .  S
C405        C406   1.410       .  A
C405       Br413   1.930       .  S
C406       Br417   1.932       .  S
C407        C408   1.410       .  A
C407        C412   1.410       .  A
C408        C409   1.407       .  A
C408       Br419   1.933       .  S
C409        C410   1.415       .  A
C409       Br415   1.933       .  S
C410        C411   1.413       .  A
C411        C412   1.409       .  A
C411       Br420   1.930       .  S
C412       Br416   1.930       .  S
C421        C422   1.418       .  A
C421        C426   1.417       .  A
C422        C423   1.410       .  A
C422       Br434   1.932       .  S
C423        C424   1.409       .  A
C423       Br438   1.931       .  S
C424        C425   1.409       .  A
C424        C427   1.490       .  S
C425        C426   1.408       .  A
C425       Br433   1.933       .  S
C426       Br437   1.933       .  S
C427        C428   1.412       .  A
C427        C432   1.410       .  A
C428        C429   1.409       .  A
C428       Br439   1.930       .  S
C429        C430   1.410       .  A
C429       Br435   1.930       .  S
C430        C431   1.412       .  A
C431        C432   1.407       .  A
C431       Br440   1.932       .  S
C432       Br436   1.931       .  S
C441        C442   1.416       .  A
C441        C446   1.415       .  A
C442        C443   1.409       .  A
C442       Br454   1.930       .  S
C443        C444   1.409       .  A
C443       Br458   1.931       .  S
C444        C445   1.407       .  A
C444        C447   1.486       .  S
C445        C446   1.405       .  A
C445       Br453   1.935       .  S
C446       Br457   1.922       .  S
C447        C448   1.412       .  A
C447        C452   1.411       .  A
C448        C449   1.408       .  A
C448       Br459   1.930       .  S
C449        C450   1.410       .  A
C449       Br455   1.930       .  S
C450        C451   1.409       .  A
C451        C452   1.404       .  A
C451       Br460   1.928       .  S
C452       Br456   1.932       .  S
C461        C462   1.412       .  A
C461        C466   1.410       .  A
C462        C463   1.408       .  A
C462       Br474   1.931       .  S
C463        C464   1.411       .  A
C463       Br478   1.931       .  S
C464        C465   1.410       .  A
C464        C467   1.485       .  S
C465        C466   1.404       .  A
C465       Br473   1.933       .  S
C466       Br477   1.928       .  S
C467        C468   1.409       .  A
C467        C472   1.411       .  A
C468        C469   1.402       .  A
C468       Br479   1.933       .  S
C469        C470   1.409       .  A
C469       Br475   1.923       .  S
C470        C471   1.412       .  A
C471        C472   1.409       .  A
C471       Br480   1.924       .  S
C472       Br476   1.930       .  S
C481        C482   1.411       .  A
C481        C486   1.410       .  A
C482        C483   1.408       .  A
C482       Br494   1.930       .  S
C483        C484   1.410       .  A
C483       Br498   1.929       .  S
C484        C485   1.409       .  A
C484        C487   1.484       .  S
C485        C486   1.404       .  A
C485       Br493   1.932       .  S
C486       Br497   1.927       .  S
C487        C488   1.407       .  A
C487        C492   1.406       .  A
C488        C489   1.409       .  A
C488       Br499   1.931       .  S
C489        C490   1.416       .  A
C489       Br495   1.925       .  S
C490        C491   1.415       .  A
C491        C492   1.404       .  A
C491       Br500   1.923       .  S
C492       Br496   1.934       .  S
C501        C502   1.414       .  A
C501        C506   1.412       .  A
C502        C503   1.408       .  A
C502       Br514   1.931       .  S
C503        C504   1.410       .  A
C503       Br518   1.930       .  S
C504        C505   1.408       .  A
C504        C507   1.484       .  S
C505        C506   1.404       .  A
C505       Br513   1.933       .  S
C506       Br517   1.927       .  S
C507        C508   1.409       .  A
C507        C512   1.410       .  A
C508        C509   1.403       .  A
C508       Br519   1.933       .  S
C509        C510   1.410       .  A
C509       Br515   1.925       .  S
C510        C511   1.411       .  A
C511        C512   1.408       .  A
C511       Br520   1.928       .  S
C512       Br516   1.930       .  S
