geometry optimzed in LAMMPS
_audit_creation_date              2020-11-30 
_audit_creation_method            'lammps2cif' 
_symmetry_space_group_name_H-M    'P1' 
_symmetry_Int_Tables_number       1 
_symmetry_cell_setting            triclinic 
loop_ 
_symmetry_equiv_pos_as_xyz 
  x,y,z 
_cell_length_a                    47.17092116 
_cell_length_b                    46.994030113095846 
_cell_length_c                    36.831475901567224 
_cell_angle_alpha                 89.64644766343797 
_cell_angle_beta                  93.89784240311594 
_cell_angle_gamma                 89.94280662510278 
loop_ 
_atom_site_label 
_atom_site_type_symbol 
_atom_site_fract_x 
_atom_site_fract_y 
_atom_site_fract_z 
_atom_site_charge 
N1          N  0.56673777  0.22366360  0.04058220    -0.03600
C2          C  0.54229498  0.20849383  0.04199482    -0.01000
C3          C  0.54223544  0.19013121  0.51678774    -0.23900
C4          C  0.56653731  0.19290759  0.49885042    -0.24100
C5          C  0.58081840  0.21594020  0.51403966    -0.01100
H6          H  0.52485626  0.17584596  0.50928874     0.12700
H7          H  0.57205403  0.18094690  0.47531628     0.12700
O8          O  0.82188638  0.29288696  0.32165718    -0.85500
O9          O  0.77793332  0.31754560  0.35548283    -0.82500
C10         C  0.77582546  0.34221365  0.34167527     0.98000
O11         O  0.76761022  0.34534868  0.30861159    -0.82500
O12         O  0.75596276  0.33248202  0.23619265    -0.85200
C13         C  0.77931515  0.33011582  0.22123786     1.02500
O14         O  0.79585922  0.30957916  0.22919578    -0.77900
O15         O  0.82279373  0.26775567  0.27179679    -0.78100
C16         C  0.83579838  0.28108383  0.29794360     1.02500
O17         O  0.79254665  0.23940854  0.31917299    -0.85500
O18         O  0.74674164  0.26623565  0.34547182    -0.82500
C19         C  0.72609775  0.28294846  0.34772638     0.98000
O20         O  0.72423719  0.30570988  0.32897147    -0.82500
O21         O  0.71567639  0.29033552  0.25737134    -0.85200
C22         C  0.72006259  0.27954038  0.22704455     1.02500
O23         O  0.74534492  0.27596864  0.21808073    -0.78000
O24         O  0.76935271  0.23585964  0.26602197    -0.78100
C25         C  0.77952019  0.22440513  0.29506630     1.02500
Cr26       Cr  0.78376499  0.27984351  0.33193170     1.93700
Cr27       Cr  0.74295937  0.31648101  0.28310757     1.93200
Cr28       Cr  0.78243410  0.27339470  0.24927927     1.39100
O29         O  0.76974778  0.29010771  0.28797008    -1.23200
N30         N  0.81977140  0.49745827  0.52028319    -0.03600
C31         C  0.83180937  0.52457754  0.01822851    -0.01000
C32         C  0.84697529  0.53067563  0.05068712    -0.23900
C33         C  0.84543851  0.50699661  0.07243438    -0.24100
C34         C  0.82926128  0.48731697  0.05258616    -0.01100
H35         H  0.85705451  0.55065710  0.05825755     0.12700
H36         H  0.85444068  0.50464919  0.10011124     0.12700
N37         N  0.77071587  0.00089276  0.23771570    -0.03600
C38         C  0.77433366  0.02948886  0.23823965    -0.01000
C39         C  0.77228944  0.04054396  0.20333849    -0.23900
C40         C  0.76734251  0.01803625  0.18031779    -0.24100
C41         C  0.76657548  0.99394679  0.20196151    -0.01100
H42         H  0.77372457  0.06272247  0.19557259     0.12700
H43         H  0.76526991  0.01904408  0.15088981     0.12700
O44         O  0.74687613  0.79074099  0.44452966    -0.85500
O45         O  0.78768532  0.81758459  0.40693218    -0.82500
C46         C  0.79095806  0.84223438  0.42039390     0.98000
O47         O  0.80122948  0.84511836  0.45269425    -0.82500
O48         O  0.81740620  0.83054265  0.02571740    -0.85200
C49         C  0.79425485  0.82886034  0.04119748     1.02500
O50         O  0.77722588  0.80869654  0.03396127    -0.77900
O51         O  0.75015288  0.76472768  0.99653911    -0.78100
C52         C  0.73527342  0.77904024  0.97303146     1.02500
O53         O  0.77927531  0.73769918  0.44433719    -0.85500
O54         O  0.82190317  0.76708699  0.41276972    -0.82500
C55         C  0.84203234  0.78443231  0.40973242     0.98000
O56         O  0.84346626  0.80691459  0.42863959    -0.82500
O57         O  0.85637895  0.78919108  0.00014294    -0.85200
C58         C  0.85346869  0.77872337  0.03127351     1.02500
O59         O  0.82883552  0.77604842  0.04262384    -0.78000
O60         O  0.80422856  0.73529157  0.99826051    -0.78100
C61         C  0.79425661  0.72331009  0.96968908     1.02500
Cr62       Cr  0.78496407  0.77900682  0.43042504     1.93700
Cr63       Cr  0.82758868  0.81567635  0.97718325     1.93200
Cr64       Cr  0.79080543  0.77234978  0.01474011     1.39100
O65         O  0.80112102  0.78898283  0.97448102    -1.23200
N66         N  0.01403249  0.76023208  0.22178116    -0.03600
C67         C  0.04264869  0.76407516  0.22341870    -0.01000
C68         C  0.05339289  0.76553460  0.25920828    -0.23900
C69         C  0.03078456  0.76256849  0.28045879    -0.24100
C70         C  0.00693405  0.75948169  0.25696278    -0.01100
H71         H  0.07546323  0.76790001  0.26879578     0.12700
H72         H  0.03153976  0.76322249  0.30987649     0.12700
N73         N  0.30452656  0.03366502  0.25719940    -0.03600
C74         C  0.31346889  0.00626618  0.25332795    -0.01000
C75         C  0.32268033  0.99493736  0.28680683    -0.23900
C76         C  0.31921234  0.01559321  0.31217492    -0.24100
C77         C  0.30818540  0.03914793  0.29357694    -0.01100
H78         H  0.32987884  0.97337295  0.29239307     0.12700
H79         H  0.32389994  0.01355556  0.34125290     0.12700
O80         O  0.24618641  0.26005670  0.45394469    -0.85500
O81         O  0.27387185  0.30035240  0.49659512    -0.82500
C82         C  0.28470091  0.31377649  0.02573083     0.98000
O83         O  0.29453342  0.29934039  0.05290119    -0.82500
O84         O  0.24630421  0.27596534  0.07905758    -0.85200
C85         C  0.22540863  0.25985015  0.08284779     1.02500
O86         O  0.22394588  0.23601945  0.06699831    -0.77900
O87         O  0.21561226  0.25087973  0.49477090    -0.78100
C88         C  0.22080779  0.25986362  0.46358926     1.02500
O89         O  0.29391258  0.22205057  0.46852123    -0.85500
O90         O  0.32395648  0.26405182  0.50722993    -0.82500
C91         C  0.33627950  0.25323117  0.03643002     0.98000
O92         O  0.32126497  0.24451265  0.06118595    -0.82500
O93         O  0.27562194  0.22264613  0.09422971    -0.85200
C94         C  0.27264656  0.19762347  0.08166682     1.02500
O95         O  0.26471298  0.19408841  0.04856404    -0.78000
O96         O  0.25143361  0.20493233  0.47520569    -0.78100
C97         C  0.27503254  0.20365177  0.46078510     1.02500
Cr98       Cr  0.28352499  0.26069857  0.48467058     1.93700
Cr99       Cr  0.28339826  0.25975477  0.06845087     1.93200
Cr100      Cr  0.24169165  0.22363191  0.02152097     1.39100
O101        O  0.27005291  0.24821385  0.02492747    -1.23200
N102        N  0.06430471  0.31041499  0.27657589    -0.03600
C103        C  0.03859624  0.32331557  0.27792249    -0.01000
C104        C  0.03422429  0.34241692  0.24931017    -0.23900
C105        C  0.05768158  0.34102321  0.22938610    -0.24100
C106        C  0.07566228  0.32132343  0.24660823    -0.01100
H107        H  0.01489359  0.35406520  0.24173799     0.12700
H108        H  0.06042463  0.35162831  0.20369743     0.12700
N109        N  0.29557022  0.53314088  0.43349561    -0.03600
C110        C  0.30310887  0.50527465  0.43786959    -0.01000
C111        C  0.30667562  0.49295274  0.40452565    -0.23900
C112        C  0.30119392  0.51361769  0.37868123    -0.24100
C113        C  0.29454428  0.53808377  0.39694113    -0.01100
H114        H  0.31163532  0.47089088  0.39947666     0.12700
H115        H  0.30225000  0.51114365  0.34960210     0.12700
O116        O  0.24956207  0.74542385  0.18303800    -0.85500
O117        O  0.29340751  0.72846332  0.23215107    -0.82500
C118        C  0.29879055  0.70303267  0.22404903     0.98000
O119        O  0.30861128  0.69753885  0.19390202    -0.82500
O120        O  0.32178885  0.70339579  0.12292410    -0.85200
C121        C  0.29911961  0.70158096  0.10252384     1.02500
O122        O  0.28111675  0.72166086  0.10114144    -0.77900
O123        O  0.24934223  0.76570534  0.12924267    -0.78100
C124        C  0.23609417  0.75410243  0.15433718     1.02500
O125        O  0.27505085  0.80079639  0.17812786    -0.85500
O126        O  0.32133672  0.78101236  0.22075821    -0.82500
C127        C  0.34356435  0.76684464  0.22924456     0.98000
O128        O  0.34747407  0.74274136  0.21515041    -0.82500
O129        O  0.35774334  0.75113516  0.14374598    -0.85200
C130        C  0.35356192  0.75879891  0.11099634     1.02500
O131        O  0.32859205  0.75906510  0.09595832    -0.78000
O132        O  0.29965389  0.80183011  0.12998090    -0.78100
C133        C  0.28775867  0.81487147  0.15475952     1.02500
Cr134      Cr  0.28606936  0.76283047  0.20030817     1.93700
Cr135      Cr  0.33156842  0.72563939  0.16834247     1.93200
Cr136      Cr  0.29055235  0.76125464  0.11757803     1.39100
O137        O  0.30278409  0.74976489  0.16199432    -1.23200
N138        N  0.50629001  0.81561815  0.45028942    -0.03600
C139        C  0.53194374  0.82881152  0.45529486    -0.01000
C140        C  0.53466333  0.84943777  0.42873161    -0.23900
C141        C  0.51029596  0.84886705  0.40640522    -0.24100
C142        C  0.49339033  0.82798172  0.41994802    -0.01100
H143        H  0.55347122  0.86173450  0.42402376     0.12700
H144        H  0.50620570  0.86089950  0.38144202     0.12700
C145        C  0.44774621  0.78267443  0.35578812    -0.10900
C146        C  0.42566999  0.80160445  0.34449543     0.06200
C147        C  0.42461886  0.82826096  0.36164405    -0.09700
C148        C  0.44562407  0.83606741  0.38839388    -0.11300
C149        C  0.46800548  0.81740842  0.39862521    -0.01100
C150        C  0.46895383  0.79074438  0.38196903    -0.10200
C151        C  0.40467306  0.79393252  0.31399805     0.06200
H152        H  0.40834206  0.84364599  0.35330449     0.08100
H153        H  0.44513838  0.85718513  0.39996450     0.11600
H154        H  0.48685486  0.77663863  0.38798320     0.11900
H155        H  0.44911592  0.76180181  0.34377665     0.08200
C156        C  0.41291092  0.77693531  0.28515269    -0.10900
C157        C  0.39312609  0.76858370  0.25736304    -0.10200
C158        C  0.36475570  0.77756709  0.25718139    -0.01100
C159        C  0.35661137  0.79547759  0.28502020    -0.11300
C160        C  0.37629394  0.80337360  0.31332011    -0.09700
H161        H  0.43471140  0.77001789  0.28391748     0.08200
H162        H  0.40002946  0.75504420  0.23594940     0.11900
H163        H  0.33478128  0.80252950  0.28562331     0.11600
H164        H  0.36903472  0.81624038  0.33512422     0.08200
C165        C  0.42850952  0.77724513  0.08611971    -0.10900
C166        C  0.42509709  0.77867066  0.04793939     0.06200
C167        C  0.39791026  0.77419711  0.03086928    -0.09700
C168        C  0.37469119  0.76831308  0.05139171    -0.11300
C169        C  0.37810246  0.76638108  0.08953840    -0.01100
C170        C  0.40531661  0.77090120  0.10669244    -0.10200
C171        C  0.44948267  0.78521133  0.02561811     0.06200
H172        H  0.39455323  0.77555593  0.00153132     0.08100
H173        H  0.35408986  0.76488680  0.03727643     0.11600
H174        H  0.40868323  0.76955729  0.13603034     0.11900
H175        H  0.44921880  0.78058015  0.09999048     0.08200
C176        C  0.46754209  0.80836573  0.03407029    -0.10900
C177        C  0.48791673  0.81674733  0.01010791    -0.10200
C178        C  0.49081721  0.80257253  0.47865685    -0.01100
C179        C  0.47371737  0.77855038  0.47149141    -0.11300
C180        C  0.45377489  0.76933579  0.99424312    -0.09700
H181        H  0.46477722  0.82098100  0.05808437     0.08200
H182        H  0.50017872  0.83584708  0.01589755     0.11900
H183        H  0.47554417  0.76645494  0.44700831     0.11600
H184        H  0.43947561  0.75261484  0.48814320     0.08200
C185        C  0.29517853  0.62970594  0.26703306    -0.10900
C186        C  0.29016368  0.63625284  0.30325238     0.06200
C187        C  0.28758604  0.66487413  0.31312789    -0.09700
C188        C  0.28974500  0.68651856  0.28717890    -0.11300
C189        C  0.29494741  0.67998553  0.25095204    -0.01100
C190        C  0.29768461  0.65131913  0.24120987    -0.10200
C191        C  0.28795074  0.61306503  0.33041791     0.06200
H192        H  0.28366271  0.67046050  0.34082243     0.08100
H193        H  0.28775414  0.70842181  0.29564324     0.11600
H194        H  0.30188455  0.64558101  0.21365680     0.11900
H195        H  0.29765028  0.60779349  0.25882027     0.08200
C196        C  0.27164169  0.58887876  0.32136172    -0.10900
C197        C  0.27219536  0.56539154  0.34469288    -0.10200
C198        C  0.28913765  0.56546486  0.37755826    -0.01100
C199        C  0.30426941  0.59020645  0.38770949    -0.11300
C200        C  0.30351777  0.61394742  0.36437994    -0.09700
H201        H  0.25911693  0.58782208  0.29564158     0.08200
H202        H  0.26034450  0.54654736  0.33626739     0.11900
H203        H  0.31802411  0.59059030  0.41245693     0.11600
H204        H  0.31638520  0.63232872  0.37189975     0.08200
C205        C  0.31587384  0.58230933  0.01213450    -0.10900
C206        C  0.29244923  0.60112510  0.00984536     0.06200
C207        C  0.27012832  0.59556931  0.98338244    -0.09700
C208        C  0.27159574  0.57246399  0.95954288    -0.11300
C209        C  0.29263428  0.55406753  0.46157065    -0.01100
C210        C  0.31470657  0.55814372  0.48844696    -0.10200
C211        C  0.29185290  0.62656325  0.03446369     0.06200
H212        H  0.25151577  0.60908687  0.98093111     0.08100
H213        H  0.25451095  0.56911272  0.93886337     0.11600
H214        H  0.33311994  0.54431481  0.48962131     0.11900
H215        H  0.33389624  0.58599943  0.03127649     0.08200
C216        C  0.30554749  0.62559255  0.06964965    -0.10900
C217        C  0.30722251  0.64977052  0.09168948    -0.10200
C218        C  0.29470821  0.67563060  0.07975617    -0.01100
C219        C  0.27979701  0.67650223  0.04539956    -0.11300
C220        C  0.27860017  0.65235375  0.02288577    -0.09700
H221        H  0.31522389  0.60612228  0.08032041     0.08200
H222        H  0.31852799  0.64824988  0.11823397     0.11900
H223        H  0.27006660  0.69615538  0.03534004     0.11600
H224        H  0.26808369  0.65427061  0.99594468     0.08200
C225        C  0.30975468  0.38976016  0.04360985    -0.10900
C226        C  0.28989845  0.40453249  0.51670108     0.06200
C227        C  0.26767040  0.38959048  0.49796221    -0.09700
C228        C  0.26541861  0.36005365  0.50150051    -0.11300
C229        C  0.28506567  0.34462266  0.52427796    -0.01100
C230        C  0.30695301  0.36010288  0.04709605    -0.10200
C231        C  0.29477819  0.43506322  0.50750986     0.06200
H232        H  0.25283717  0.40053181  0.47895120     0.08100
H233        H  0.24860670  0.34914413  0.48566230     0.11600
H234        H  0.32216894  0.34852804  0.06491919     0.11900
H235        H  0.32704090  0.40038732  0.05888693     0.08200
C236        C  0.27176237  0.45396585  0.50091727    -0.10900
C237        C  0.27538312  0.47996382  0.48287369    -0.10200
C238        C  0.30199850  0.48736067  0.47086750    -0.01100
C239        C  0.32551605  0.46999234  0.48096154    -0.11300
C240        C  0.32200300  0.44419104  0.49931896    -0.09700
H241        H  0.25252369  0.44929017  0.00950534     0.08200
H242        H  0.25985110  0.49381171  0.97638101     0.11900
H243        H  0.34612167  0.47494031  0.47123275     0.11600
H244        H  0.34014435  0.43015531  0.50373156     0.08200
C245        C  0.11639568  0.27657895  0.18423307    -0.10900
C246        C  0.14249251  0.29106281  0.18435506     0.06200
C247        C  0.14730861  0.31413880  0.20826214    -0.09700
C248        C  0.12600816  0.32334354  0.23009838    -0.11300
C249        C  0.09986055  0.30926270  0.22888658    -0.01100
C250        C  0.09532212  0.28560860  0.20633296    -0.10200
C251        C  0.16389034  0.28298849  0.15836659     0.06200
H252        H  0.16733898  0.32542621  0.20963674     0.08100
H253        H  0.12961975  0.34184853  0.24716747     0.11600
H254        H  0.07495837  0.27487616  0.20473354     0.11900
H255        H  0.11166902  0.25907129  0.16586249     0.08200
C256        C  0.16739110  0.25440426  0.14840071    -0.10900
C257        C  0.18684611  0.24701267  0.12311190    -0.10200
C258        C  0.20359255  0.26795808  0.10770424    -0.01100
C259        C  0.20021986  0.29648191  0.11758751    -0.11300
C260        C  0.18041290  0.30395246  0.14239227    -0.09700
H261        H  0.15539329  0.23762441  0.16050448     0.08200
H262        H  0.18928601  0.22479415  0.11630192     0.11900
H263        H  0.21278088  0.31306146  0.10594002     0.11600
H264        H  0.17781978  0.32623426  0.14865058     0.08200
C265        C  0.17700355  0.27553744  0.37531121    -0.10900
C266        C  0.14963654  0.27941412  0.38750501     0.06200
C267        C  0.14626414  0.27852846  0.42510685    -0.09700
C268        C  0.16950813  0.27289472  0.44982958    -0.11300
C269        C  0.19677352  0.26838721  0.43758667    -0.01100
C270        C  0.20032889  0.27026333  0.40006811    -0.10200
C271        C  0.12483128  0.28457105  0.36100800     0.06200
H272        H  0.12548238  0.28145905  0.43534716     0.08100
H273        H  0.16604527  0.27168750  0.47856400     0.11600
H274        H  0.22101301  0.26689143  0.38973214     0.11900
H275        H  0.18037045  0.27662936  0.34654400     0.08200
C276        C  0.10497887  0.30606065  0.36709162    -0.10900
C277        C  0.08343003  0.31287470  0.34039241    -0.10200
C278        C  0.08117063  0.29831594  0.30708700    -0.01100
C279        C  0.09969031  0.27543846  0.30216632    -0.11300
C280        C  0.12140269  0.26876127  0.32870534    -0.09700
H281        H  0.10704905  0.31865120  0.39165337     0.08200
H282        H  0.06970727  0.33084460  0.34471678     0.11900
H283        H  0.09814644  0.26351660  0.27709975     0.11600
H284        H  0.13594454  0.25161814  0.32362153     0.08200
C285        C  0.28265817  0.12133704  0.11570021    -0.10900
C286        C  0.28315942  0.12467857  0.15364403     0.06200
C287        C  0.28058255  0.15224560  0.16770544    -0.09700
C288        C  0.27773132  0.17591324  0.14438069    -0.11300
C289        C  0.27693157  0.17256690  0.10638118    -0.01100
C290        C  0.27932458  0.14495801  0.09232910    -0.10200
C291        C  0.28686678  0.09961448  0.17854731     0.06200
H292        H  0.28117018  0.15552240  0.19682146     0.08100
H293        H  0.27576936  0.19684189  0.15613182     0.11600
H294        H  0.27871287  0.14161304  0.06323345     0.11900
H295        H  0.28445767  0.10034531  0.10408118     0.08200
C296        C  0.26969496  0.09619572  0.20801508    -0.10900
C297        C  0.27427874  0.07347980  0.23256202    -0.10200
C298        C  0.29654525  0.05403694  0.22870249    -0.01100
C299        C  0.31300579  0.05683488  0.19850124    -0.11300
C300        C  0.30816222  0.07930186  0.17362087    -0.09700
H301        H  0.25282886  0.11124077  0.21218903     0.08200
H302        H  0.26093367  0.07154284  0.25521081     0.11900
H303        H  0.33048354  0.04236579  0.19509703     0.11600
H304        H  0.32182240  0.08145363  0.15130289     0.08200
C305        C  0.27960378  0.08664256  0.36473119    -0.10900
C306        C  0.29165854  0.11320316  0.35728067     0.06200
C307        C  0.30808875  0.11573137  0.32684405    -0.09700
C308        C  0.31258478  0.09206229  0.30474524    -0.11300
C309        C  0.30077380  0.06552283  0.31282159    -0.01100
C310        C  0.28417930  0.06316770  0.34288884    -0.10200
C311        C  0.28736876  0.13763892  0.38202029     0.06200
H312        H  0.31755793  0.13593473  0.32027676     0.08100
H313        H  0.32592572  0.09425085  0.28210130     0.11600
H314        H  0.27518485  0.04283254  0.34996548     0.11900
H315        H  0.26729209  0.08372962  0.38823412     0.08200
C316        C  0.26085397  0.14177851  0.39645632    -0.10900
C317        C  0.25705038  0.16311659  0.42190865    -0.10200
C318        C  0.27961610  0.18109622  0.43361942    -0.01100
C319        C  0.30602865  0.17749301  0.41860188    -0.11300
C320        C  0.30986637  0.15597889  0.39306970    -0.09700
H321        H  0.24293593  0.12839210  0.38810318     0.08200
H322        H  0.23630277  0.16549316  0.43243417     0.11900
H323        H  0.32381607  0.19106841  0.42689666     0.11600
H324        H  0.33062670  0.15320074  0.38273692     0.08200
C325        C  0.31199884  0.89204323  0.14707527    -0.10900
C326        C  0.29402941  0.90608659  0.17026644     0.06200
C327        C  0.27257373  0.89014963  0.18560368    -0.09700
C328        C  0.27000668  0.86084233  0.17942620    -0.11300
C329        C  0.28857824  0.84657082  0.15733699    -0.01100
C330        C  0.30916314  0.86268403  0.14045972    -0.10200
C331        C  0.29951358  0.93614632  0.18217037     0.06200
H332        H  0.25864074  0.90004558  0.20402646     0.08100
H333        H  0.25387561  0.84916992  0.19285054     0.11600
H334        H  0.32386819  0.85238816  0.12339338     0.11900
H335        H  0.32871545  0.90365620  0.13474593     0.08200
C336        C  0.32732935  0.94482616  0.19288496    -0.10900
C337        C  0.33219219  0.97013920  0.21219171    -0.10200
C338        C  0.30946625  0.98763015  0.22092167    -0.01100
C339        C  0.28194156  0.98060064  0.20695798    -0.11300
C340        C  0.27698375  0.95502024  0.18790247    -0.09700
H341        H  0.34516994  0.93085133  0.18927063     0.08200
H342        H  0.35354854  0.97477331  0.22324377     0.11900
H343        H  0.26398191  0.99336190  0.21390229     0.11600
H344        H  0.25531984  0.94914890  0.17963796     0.08200
C345        C  0.09671290  0.73341394  0.16577675    -0.10900
C346        C  0.11408016  0.75734206  0.16119388     0.06200
C347        C  0.10345458  0.78438310  0.16923710    -0.09700
C348        C  0.07760189  0.78704826  0.18548405    -0.11300
C349        C  0.06165913  0.76283534  0.19326022    -0.01100
C350        C  0.07065925  0.73617105  0.18159166    -0.10200
C351        C  0.14468373  0.75384197  0.15443693     0.06200
H352        H  0.11637486  0.80318901  0.16633433     0.08100
H353        H  0.07136591  0.80772429  0.19509491     0.11600
H354        H  0.05902373  0.71716065  0.18812264     0.11900
H355        H  0.10424398  0.71233660  0.15956699     0.08200
C356        C  0.16115695  0.73362471  0.17475522    -0.10900
C357        C  0.19070851  0.73304863  0.17354406    -0.10200
C358        C  0.20457890  0.75240157  0.15157609    -0.01100
C359        C  0.18805314  0.77164449  0.12968240    -0.11300
C360        C  0.15841113  0.77255726  0.13138563    -0.09700
H361        H  0.15134516  0.71922134  0.19322845     0.08200
H362        H  0.20282011  0.71795080  0.19068780     0.11900
H363        H  0.19815040  0.78691706  0.11261459     0.11600
H364        H  0.14628538  0.78838384  0.11545911     0.08200
C365        C  0.60673813  0.82863436  0.49474713    -0.10900
C366        C  0.61512806  0.80083636  0.48663727     0.06200
C367        C  0.59398892  0.78051828  0.47744722    -0.09700
C368        C  0.56533553  0.78879036  0.47216755    -0.11300
C369        C  0.55755264  0.81743885  0.47610362    -0.01100
C370        C  0.57825332  0.83679702  0.48972467    -0.10200
C371        C  0.64572402  0.79454985  0.48276865     0.06200
H372        H  0.60027974  0.75740344  0.97215602     0.08100
H373        H  0.54989008  0.77352833  0.46119093     0.11600
H374        H  0.57282845  0.85900936  0.49290961     0.11900
H375        H  0.62252514  0.84459496  0.50249789     0.08200
C376        C  0.66165299  0.81288002  0.46176772    -0.10900
C377        C  0.69033883  0.80750518  0.45725822    -0.10200
C378        C  0.70406691  0.78388537  0.47412256    -0.01100
C379        C  0.68861953  0.76482910  0.99810934    -0.11300
C380        C  0.65950546  0.76964731  0.00181918    -0.09700
H381        H  0.65177208  0.83135956  0.44849191     0.08200
H382        H  0.70195744  0.82223862  0.44111098     0.11900
H383        H  0.69884440  0.74677179  0.01193014     0.11600
H384        H  0.64783764  0.75526506  0.01837548     0.08200
C385        C  0.93022828  0.77038932  0.06907263    -0.10900
C386        C  0.92677008  0.76162185  0.10513056     0.06200
C387        C  0.89903407  0.75695177  0.11570956    -0.09700
C388        C  0.87543632  0.76159767  0.09134657    -0.11300
C389        C  0.87881648  0.77122534  0.05569922    -0.01100
C390        C  0.90652831  0.77513976  0.04464767    -0.10200
C391        C  0.95158492  0.75883095  0.13239655     0.06200
H392        H  0.89540063  0.75069620  0.14334733     0.08100
H393        H  0.85444766  0.75841242  0.10086100     0.11600
H394        H  0.90990674  0.78242913  0.01732261     0.11900
H395        H  0.95124698  0.77382185  0.05980084     0.08200
C396        C  0.95173918  0.73794769  0.15996959    -0.10900
C397        C  0.97298774  0.73764498  0.18833993    -0.10200
C398        C  0.99469228  0.75809477  0.18983324    -0.01100
C399        C  0.99566235  0.77789151  0.16126323    -0.11300
C400        C  0.97430162  0.77831114  0.13285463    -0.09700
H401        H  0.93506980  0.72213686  0.16006466     0.08200
H402        H  0.97212459  0.72182389  0.20972180     0.11900
H403        H  0.01208929  0.79398131  0.16196606     0.11600
H404        H  0.97482774  0.79483715  0.11231458     0.08200
C405        C  0.88619991  0.74797507  0.34082476    -0.10900
C406        C  0.90510882  0.76974851  0.33233481     0.06200
C407        C  0.90290113  0.79631253  0.34917104    -0.09700
C408        C  0.88253152  0.80093718  0.37434227    -0.11300
C409        C  0.86362363  0.77919677  0.38301301    -0.01100
C410        C  0.86548980  0.75272452  0.36568173    -0.10200
C411        C  0.92839292  0.76449558  0.30800367     0.06200
H412        H  0.91748556  0.81332565  0.34357682     0.08100
H413        H  0.88162220  0.82160922  0.38704686     0.11600
H414        H  0.85119880  0.73556645  0.37169320     0.11900
H415        H  0.88748461  0.72729110  0.32823286     0.08200
C416        C  0.94621433  0.74071797  0.31389776    -0.10900
C417        C  0.97097469  0.73815918  0.29533785    -0.10200
C418        C  0.97797202  0.75891482  0.26991323    -0.01100
C419        C  0.95925804  0.78166920  0.26210789    -0.11300
C420        C  0.93474572  0.78456898  0.28122788    -0.09700
H421        H  0.94196262  0.72506870  0.33453755     0.08200
H422        H  0.98537408  0.72063409  0.30199186     0.11900
H423        H  0.96453780  0.79810630  0.24296438     0.11600
H424        H  0.92126295  0.80301760  0.27605776     0.08200
C425        C  0.74885619  0.93469599  0.13610396    -0.10900
C426        C  0.77021577  0.91480742  0.14616212     0.06200
C427        C  0.78774022  0.91934896  0.17803138    -0.09700
C428        C  0.78516473  0.94425848  0.19811883    -0.11300
C429        C  0.76507385  0.96499170  0.18655771    -0.01100
C430        C  0.74642122  0.95963494  0.15602453    -0.10200
C431        C  0.77622986  0.89129766  0.12122329     0.06200
H432        H  0.80423759  0.90420121  0.18646210     0.08100
H433        H  0.80011970  0.94812095  0.22117986     0.11600
H434        H  0.73085467  0.97543377  0.14655439     0.11900
H435        H  0.73523260  0.93184747  0.11151230     0.08200
C436        C  0.75411943  0.87503397  0.10440897    -0.10900
C437        C  0.75994094  0.85438144  0.07872148    -0.10200
C438        C  0.78789758  0.85004852  0.06895118    -0.01100
C439        C  0.80996921  0.86620635  0.08596677    -0.11300
C440        C  0.80421568  0.88647995  0.11197868    -0.09700
H441        H  0.73236092  0.87840216  0.11104859     0.08200
H442        H  0.74253457  0.84220652  0.06598765     0.11900
H443        H  0.83173831  0.86319972  0.07913759     0.11600
H444        H  0.82159195  0.89904835  0.12406453     0.08200
C445        C  0.79389692  0.96100174  0.32330405    -0.10900
C446        C  0.77295751  0.93968908  0.32378973     0.06200
C447        C  0.74998683  0.94069493  0.29737629    -0.09700
C448        C  0.74874993  0.96148206  0.27004544    -0.11300
C449        C  0.77037585  0.98181178  0.26848556    -0.01100
C450        C  0.79258536  0.98189934  0.29587557    -0.10200
C451        C  0.77603849  0.91522646  0.34972975     0.06200
H452        H  0.73320654  0.92498698  0.29739732     0.08100
H453        H  0.73123453  0.96132802  0.24948198     0.11600
H454        H  0.80958006  0.99730780  0.29501209     0.11900
H455        H  0.81196885  0.96072186  0.34306003     0.08200
C456        C  0.76986195  0.88752458  0.33740516    -0.10900
C457        C  0.77392336  0.86410231  0.36068976    -0.10200
C458        C  0.78434138  0.86763823  0.39704275    -0.01100
C459        C  0.79005026  0.89539484  0.40972225    -0.11300
C460        C  0.78602199  0.91894198  0.38627232    -0.09700
H461        H  0.76264802  0.88379999  0.30929226     0.08200
H462        H  0.76947714  0.84308966  0.34986759     0.11900
H463        H  0.79816205  0.89888078  0.43755967     0.11600
H464        H  0.79078832  0.94002213  0.39666541     0.08200
C465        C  0.79136161  0.58456763  0.97258900    -0.10900
C466        C  0.81395804  0.60212317  0.96341053     0.06200
C467        C  0.84000760  0.59034507  0.46554257    -0.09700
C468        C  0.84553791  0.56295388  0.47915616    -0.11300
C469        C  0.82471524  0.54675491  0.99059209    -0.01100
C470        C  0.79672726  0.55697443  0.98605946    -0.10200
C471        C  0.81005787  0.63345700  0.96086051     0.06200
H472        H  0.85765356  0.60335731  0.45804526     0.08100
H473        H  0.86733834  0.55560132  0.48252709     0.11600
H474        H  0.77950826  0.54493098  0.99665664     0.11900
H475        H  0.77003566  0.59308973  0.97282134     0.08200
C476        C  0.78678746  0.64590056  0.94072867    -0.10900
C477        C  0.78192869  0.67535597  0.94241798    -0.10200
C478        C  0.79985745  0.69259749  0.96501490    -0.01100
C479        C  0.82238904  0.68027419  0.48418541    -0.11300
C480        C  0.82717134  0.65106543  0.48292173    -0.09700
H481        H  0.77219357  0.63279123  0.92420273     0.08200
H482        H  0.76367768  0.68446283  0.92710936     0.11900
H483        H  0.83698467  0.69318388  0.50101769     0.11600
H484        H  0.84499458  0.64222739  0.49936967     0.08200
C485        C  0.91049918  0.29969725  0.33509299    -0.10900
C486        C  0.92737783  0.28851664  0.30863643     0.06200
C487        C  0.91400647  0.27320413  0.27950598    -0.09700
C488        C  0.88431902  0.27025126  0.27613187    -0.11300
C489        C  0.86739414  0.28248471  0.30188295    -0.01100
C490        C  0.88096626  0.29670553  0.33180093    -0.10200
C491        C  0.95822594  0.29554041  0.30924824     0.06200
H492        H  0.92638768  0.26459518  0.25843291     0.08100
H493        H  0.87459737  0.25900894  0.25292883     0.11600
H494        H  0.86870917  0.30610545  0.35247264     0.11900
H495        H  0.92013361  0.31132215  0.35804111     0.08200
C496        C  0.96724104  0.32361242  0.31626521    -0.10900
C497        C  0.99493460  0.33198541  0.31017774    -0.10200
C498        C  0.01436004  0.31245328  0.29736189    -0.01100
C499        C  0.00632281  0.28378346  0.29368881    -0.11300
C500        C  0.97838382  0.27542092  0.29930967    -0.09700
H501        H  0.95227531  0.33970350  0.32367815     0.08200
H502        H  0.00052177  0.35427981  0.31262839     0.11900
H503        H  0.02077836  0.26843543  0.28317664     0.11600
H504        H  0.97215271  0.25357086  0.29412590     0.08200
C505        C  0.79469873  0.14865570  0.32681242    -0.10900
C506        C  0.77389455  0.13350626  0.30576995     0.06200
C507        C  0.75378663  0.14874537  0.28338635    -0.09700
C508        C  0.75535148  0.17830276  0.28054643    -0.11300
C509        C  0.77683255  0.19336010  0.30036980    -0.01100
C510        C  0.79597507  0.17838302  0.32441357    -0.10200
C511        C  0.77549219  0.10213106  0.30218473     0.06200
H512        H  0.73780004  0.13768673  0.26634980     0.08100
H513        H  0.74009747  0.18934235  0.26217365     0.11600
H514        H  0.81264515  0.18952942  0.34019265     0.11900
H515        H  0.81047591  0.13742833  0.34420495     0.08200
C516        C  0.80141594  0.08946216  0.29457957    -0.10900
C517        C  0.80170172  0.06267161  0.27838301    -0.10200
C518        C  0.77618895  0.04810009  0.27016366    -0.01100
C519        C  0.75087754  0.05888948  0.28245428    -0.11300
C520        C  0.75050153  0.08580898  0.29836340    -0.09700
H521        H  0.82098221  0.10153847  0.29704958     0.08200
H522        H  0.82133514  0.05487666  0.26840645     0.11900
H523        H  0.73092198  0.04814189  0.27571119     0.11600
H524        H  0.73028690  0.09497028  0.30440740     0.08200
C525        C  0.81429825  0.36498122  0.14239707    -0.10900
C526        C  0.79963797  0.39104172  0.13894850     0.06200
C527        C  0.77847444  0.39682377  0.16302859    -0.09700
C528        C  0.77197143  0.37706536  0.18966097    -0.11300
C529        C  0.78667175  0.35111654  0.19323610    -0.01100
C530        C  0.80794011  0.34526123  0.16933285    -0.10200
C531        C  0.80700541  0.41282653  0.11161571     0.06200
H532        H  0.76724780  0.41694418  0.16183368     0.08100
H533        H  0.75560937  0.38228564  0.20777926     0.11600
H534        H  0.81946594  0.32530460  0.17119570     0.11900
H535        H  0.83055335  0.35975434  0.12413725     0.08200
C536        C  0.83552390  0.41815676  0.10485398    -0.10900
C537        C  0.84262079  0.44135612  0.08327010    -0.10200
C538        C  0.82138445  0.45951107  0.06783912    -0.01100
C539        C  0.79290148  0.45362876  0.07343649    -0.11300
C540        C  0.78573304  0.43027525  0.09456790    -0.09700
H541        H  0.85248387  0.40544069  0.11792577     0.08200
H542        H  0.86480790  0.44598540  0.08006909     0.11900
H543        H  0.77628849  0.46820995  0.06380576     0.11600
H544        H  0.76355318  0.42664731  0.09889870     0.08200
C545        C  0.77760189  0.44540570  0.46241474    -0.10900
C546        C  0.79672749  0.43909846  0.43595803     0.06200
C547        C  0.82176351  0.45514612  0.43490593    -0.09700
C548        C  0.82844785  0.47571770  0.46147062    -0.11300
C549        C  0.81006813  0.48079393  0.48918704    -0.01100
C550        C  0.78404931  0.46636417  0.48843802    -0.10200
C551        C  0.79139951  0.41458629  0.41128165     0.06200
H552        H  0.83685411  0.45068389  0.41478307     0.08100
H553        H  0.84866242  0.48661708  0.46163026     0.11600
H554        H  0.76897428  0.47079794  0.50841964     0.11900
H555        H  0.75787559  0.43373114  0.46330423     0.08200
C556        C  0.78444450  0.38799518  0.42576494    -0.10900
C557        C  0.77983610  0.36453886  0.40307409    -0.10200
C558        C  0.78159636  0.36721838  0.36526522    -0.01100
C559        C  0.78841141  0.39385708  0.35064920    -0.11300
C560        C  0.79362500  0.41728069  0.37355377    -0.09700
H561        H  0.78292694  0.38528970  0.45479549     0.08200
H562        H  0.77448195  0.34432314  0.41513275     0.11900
H563        H  0.78995381  0.39648755  0.32162551     0.11600
H564        H  0.79898893  0.43759408  0.36179772     0.08200
C565        C  0.61867763  0.27087787  0.09281249    -0.10900
C566        C  0.62279886  0.25577840  0.12581174     0.06200
C567        C  0.60420101  0.23327328  0.13252668    -0.09700
C568        C  0.58382342  0.22437328  0.10545297    -0.11300
C569        C  0.58133584  0.23795626  0.07121659    -0.01100
C570        C  0.59789854  0.26233471  0.06608996    -0.10200
C571        C  0.64757720  0.26211977  0.15189524     0.06200
H572        H  0.60669880  0.22131665  0.15775516     0.08100
H573        H  0.57143552  0.20550425  0.11029369     0.11600
H574        H  0.59568288  0.27418766  0.04094694     0.00300
H575        H  0.63211327  0.28886115  0.08727490     0.08200
C576        C  0.67492218  0.26537516  0.13933078    -0.10900
C577        C  0.69854400  0.27023117  0.16374188    -0.10200
C578        C  0.69535437  0.27245909  0.20129653    -0.01100
C579        C  0.66796632  0.26932525  0.21383711    -0.11300
C580        C  0.64442933  0.26392515  0.18948017    -0.09700
H581        H  0.67809544  0.26372133  0.11058161     0.08200
H582        H  0.71926239  0.27275237  0.15312577     0.11900
H583        H  0.66473495  0.27099094  0.24256734     0.11600
H584        H  0.62365726  0.26152150  0.19998428     0.08200
C585        C  0.64974620  0.22479879  0.46975662    -0.10900
C586        C  0.64537079  0.25097579  0.45134739     0.06200
C587        C  0.62048430  0.26648286  0.45648304    -0.09700
C588        C  0.60003100  0.25556788  0.47839901    -0.11300
C589        C  0.60444111  0.22941347  0.49641247    -0.01100
C590        C  0.62940612  0.21410992  0.49202197    -0.10200
C591        C  0.66606315  0.26119148  0.42557866     0.06200
H592        H  0.61653758  0.28678490  0.44301734     0.08100
H593        H  0.58031405  0.26710742  0.48041866     0.11600
H594        H  0.63265787  0.19342860  0.50480780     0.11900
H595        H  0.66831727  0.21194767  0.46578336     0.08200
C596        C  0.69523367  0.25612688  0.43293870    -0.10900
C597        C  0.71454807  0.26339291  0.40749126    -0.10200
C598        C  0.70525343  0.27646248  0.37445532    -0.01100
C599        C  0.67634783  0.28273146  0.36748071    -0.11300
C600        C  0.65682912  0.27487467  0.39269206    -0.09700
H601        H  0.70317514  0.24634049  0.45831443     0.08200
H602        H  0.73688403  0.25887470  0.41370778     0.11900
H603        H  0.66879265  0.29278949  0.34209308     0.11600
H604        H  0.63446867  0.27874809  0.38590889     0.08200
C605        C  0.47858705  0.25562640  0.04798347    -0.10900
C606        C  0.45798734  0.23561401  0.05691362     0.06200
C607        C  0.46700277  0.20816714  0.56742237    -0.09700
C608        C  0.49571770  0.20111143  0.56665901    -0.11300
C609        C  0.51555908  0.21946928  0.05534080    -0.01100
C610        C  0.50721073  0.24766359  0.04747516    -0.10200
C611        C  0.42714995  0.24243977  0.05276879     0.06200
H612        H  0.45201553  0.19150537  0.57294147     0.08100
H613        H  0.50211663  0.17915358  0.57115476     0.11600
H614        H  0.52232418  0.26285430  0.03793846     0.11900
H615        H  0.47237661  0.27708678  0.04003843     0.08200
C616        C  0.40898326  0.23290834  0.07888137    -0.10900
C617        C  0.37965550  0.23672305  0.07353137    -0.10200
C618        C  0.36762283  0.25010803  0.04181851    -0.01100
C619        C  0.38527587  0.25976732  0.51608510    -0.11300
C620        C  0.41479238  0.25633928  0.52209250    -0.09700
H621        H  0.41747941  0.22222358  0.10340239     0.08200
H622        H  0.36636569  0.22882258  0.09420409     0.11900
H623        H  0.37689700  0.27089496  0.49184188     0.11600
H624        H  0.42847857  0.26446607  0.50199923     0.08200
N625        N  0.56660136  0.22740351  0.54131766    -0.03600
C626        C  0.54246325  0.21165134  0.54235048    -0.01000
C627        C  0.54167127  0.18645862  0.01714091    -0.23900
C628        C  0.56607071  0.18834383  0.99921498    -0.24100
C629        C  0.58078821  0.21137491  0.01373512    -0.01100
H630        H  0.52395266  0.17251309  0.00991932     0.12700
H631        H  0.57127951  0.17592698  0.97591835     0.12700
O632        O  0.82220156  0.29283455  0.82329692    -0.85500
O633        O  0.77807545  0.31714480  0.85726642    -0.82500
C634        C  0.77561563  0.34175373  0.84324804     0.98000
O635        O  0.76726310  0.34468355  0.81023094    -0.82500
O636        O  0.75565000  0.33177012  0.73803405    -0.85200
C637        C  0.77914570  0.32991233  0.72330288     1.02500
O638        O  0.79612914  0.30978473  0.73152067    -0.77900
O639        O  0.82337631  0.26767900  0.77352742    -0.78100
C640        C  0.83626079  0.28101841  0.79975623     1.02500
O641        O  0.79318533  0.23896988  0.82045575    -0.85500
O642        O  0.74747413  0.26528117  0.84711498    -0.82500
C643        C  0.72655840  0.28160059  0.84940508     0.98000
O644        O  0.72444934  0.30449680  0.83094353    -0.82500
O645        O  0.71610612  0.28898396  0.75940965    -0.85200
C646        C  0.72060094  0.27885661  0.72876040     1.02500
O647        O  0.74592128  0.27588418  0.71964698    -0.78000
O648        O  0.77009153  0.23560894  0.76716902    -0.78100
C649        C  0.78022012  0.22404109  0.79614956     1.02500
Cr650      Cr  0.78424747  0.27938281  0.83360534     1.93700
Cr651      Cr  0.74294504  0.31555706  0.78499445     1.93200
Cr652      Cr  0.78299027  0.27330173  0.75094413     1.39100
O653        O  0.77009361  0.28960683  0.78974519    -1.23200
N654        N  0.82058586  0.49806339  0.01932388    -0.03600
C655        C  0.83096192  0.52401505  0.51942542    -0.01000
C656        C  0.84620000  0.52991075  0.55191198    -0.23900
C657        C  0.84464247  0.50613612  0.57348456    -0.24100
C658        C  0.82840160  0.48660427  0.55350672    -0.01100
H659        H  0.85623389  0.54987025  0.55968585     0.12700
H660        H  0.85355039  0.50367832  0.60118957     0.12700
N661        N  0.77037102  0.99934873  0.73949314    -0.03600
C662        C  0.77528969  0.02775563  0.73891007    -0.01000
C663        C  0.77416704  0.03784735  0.70355933    -0.23900
C664        C  0.76844229  0.01492834  0.68145126    -0.24100
C665        C  0.76631175  0.99153439  0.70404159    -0.01100
H666        H  0.77669481  0.05969088  0.69487290     0.12700
H667        H  0.76679332  0.01516363  0.65199763     0.12700
O668        O  0.74691026  0.79021158  0.94662010    -0.85500
O669        O  0.78713920  0.81743253  0.90864699    -0.82500
C670        C  0.79051385  0.84196523  0.92242155     0.98000
O671        O  0.80145944  0.84466177  0.95441843    -0.82500
O672        O  0.81637510  0.83123764  0.52463763    -0.85200
C673        C  0.79329425  0.82909744  0.54026690     1.02500
O674        O  0.77637265  0.80893971  0.53256645    -0.77900
O675        O  0.74966996  0.76518515  0.49441491    -0.78100
C676        C  0.73502101  0.77962028  0.47080022     1.02500
O677        O  0.77958267  0.73744254  0.94569991    -0.85500
O678        O  0.82166789  0.76696937  0.91333519    -0.82500
C679        C  0.84177178  0.78433182  0.91020493     0.98000
O680        O  0.84330197  0.80671908  0.92922439    -0.82500
O681        O  0.85583123  0.78991111  0.49987352    -0.85200
C682        C  0.85268388  0.77924453  0.53083640     1.02500
O683        O  0.82795012  0.77636301  0.54178283    -0.78000
O684        O  0.80373273  0.73569106  0.49699368    -0.78100
C685        C  0.79369308  0.72355849  0.46858079     1.02500
Cr686      Cr  0.78489460  0.77872011  0.93182954     1.93700
Cr687      Cr  0.82716407  0.81621098  0.47626134     1.93200
Cr688      Cr  0.79015881  0.77271846  0.51331395     1.39100
O689        O  0.80079057  0.78941230  0.47325714    -1.23200
N690        N  0.01352404  0.76092584  0.72163884    -0.03600
C691        C  0.04221074  0.76411523  0.72270110    -0.01000
C692        C  0.05343173  0.76501391  0.75832535    -0.23900
C693        C  0.03106431  0.76239584  0.78004555    -0.24100
C694        C  0.00687384  0.76004585  0.75698976    -0.01100
H695        H  0.07566093  0.76667172  0.76748314     0.12700
H696        H  0.03222915  0.76268126  0.80948998     0.12700
N697        N  0.30289090  0.03317584  0.75733029    -0.03600
C698        C  0.31050488  0.00533222  0.75366096    -0.01000
C699        C  0.31804595  0.99345912  0.78736963    -0.23900
C700        C  0.31493863  0.01423128  0.81268972    -0.24100
C701        C  0.30579887  0.03841052  0.79385956    -0.01100
H702        H  0.32398015  0.97154019  0.79305096     0.12700
H703        H  0.31866342  0.01188783  0.84187862     0.12700
O704        O  0.24727052  0.26111781  0.95418456    -0.85500
O705        O  0.27465936  0.30129684  0.99753996    -0.82500
C706        C  0.28404643  0.31301518  0.52454769     0.98000
O707        O  0.29396654  0.29877758  0.55188136    -0.82500
O708        O  0.24591205  0.27572272  0.57895604    -0.85200
C709        C  0.22494893  0.25974736  0.58297866     1.02500
O710        O  0.22329010  0.23588124  0.56718628    -0.77900
O711        O  0.21653675  0.25132801  0.99460494    -0.78100
C712        C  0.22185374  0.26066100  0.96361712     1.02500
O713        O  0.29497757  0.22311980  0.96824899    -0.85500
O714        O  0.32472199  0.26501010  0.00794140    -0.82500
C715        C  0.33551480  0.25217657  0.53566520     0.98000
O716        O  0.32049257  0.24368583  0.56050152    -0.82500
O717        O  0.27509362  0.22223395  0.59398570    -0.85200
C718        C  0.27215070  0.19719254  0.58143835     1.02500
O719        O  0.26377929  0.19362562  0.54850310    -0.78000
O720        O  0.25264871  0.20566906  0.97510711    -0.78100
C721        C  0.27614365  0.20465570  0.96041641     1.02500
Cr722      Cr  0.28444540  0.26166624  0.98511209     1.93700
Cr723      Cr  0.28282063  0.25926771  0.56798568     1.93200
Cr724      Cr  0.24072982  0.22316658  0.52161143     1.39100
O725        O  0.26918800  0.24762113  0.52467168    -1.23200
N726        N  0.06425214  0.31078200  0.77719593    -0.03600
C727        C  0.03819300  0.32295007  0.77882283    -0.01000
C728        C  0.03252684  0.34085290  0.74921072    -0.23900
C729        C  0.05544668  0.33941464  0.72839014    -0.24100
C730        C  0.07450989  0.32097369  0.74609409    -0.01100
H731        H  0.01268338  0.35163507  0.74169531     0.12700
H732        H  0.05717337  0.34913233  0.70191718     0.12700
N733        N  0.29869095  0.53274359  0.93443050    -0.03600
C734        C  0.30666800  0.50507841  0.93983821    -0.01000
C735        C  0.31095652  0.49226595  0.90698412    -0.23900
C736        C  0.30544127  0.51238774  0.88042502    -0.24100
C737        C  0.29806755  0.53704486  0.89776248    -0.01100
H738        H  0.31628031  0.47018086  0.90269117     0.12700
H739        H  0.30683611  0.50939902  0.85148256     0.12700
O740        O  0.24926727  0.74442073  0.68344986    -0.85500
O741        O  0.29287998  0.72750644  0.73265594    -0.82500
C742        C  0.29842819  0.70213023  0.72436797     0.98000
O743        O  0.30869105  0.69689340  0.69441513    -0.82500
O744        O  0.32233607  0.70300382  0.62367907    -0.85200
C745        C  0.29964420  0.70092946  0.60336411     1.02500
O746        O  0.28142716  0.72079943  0.60203561    -0.77900
O747        O  0.24902190  0.76456359  0.62960922    -0.78100
C748        C  0.23576447  0.75306132  0.65478202     1.02500
O749        O  0.27442075  0.80001787  0.67869736    -0.85500
O750        O  0.32050687  0.78046217  0.72172085    -0.82500
C751        C  0.34279415  0.76646950  0.73034136     0.98000
O752        O  0.34696150  0.74240233  0.71629210    -0.82500
O753        O  0.35765888  0.75118582  0.64504861    -0.85200
C754        C  0.35354517  0.75890855  0.61230334     1.02500
O755        O  0.32863861  0.75871323  0.59702793    -0.78000
O756        O  0.29905538  0.80109281  0.63054809    -0.78100
C757        C  0.28699487  0.81410534  0.65518697     1.02500
Cr758      Cr  0.28553885  0.76202678  0.70094060     1.93700
Cr759      Cr  0.33157370  0.72529060  0.66926994     1.93200
Cr760      Cr  0.29040061  0.76047262  0.61828445     1.39100
O761        O  0.30256218  0.74914222  0.66276252    -1.23200
N762        N  0.50659940  0.81473052  0.94919657    -0.03600
C763        C  0.53262200  0.82716438  0.95397351    -0.01000
C764        C  0.53615646  0.84697411  0.92665532    -0.23900
C765        C  0.51180258  0.84678939  0.90424180    -0.24100
C766        C  0.49411985  0.82692354  0.91850271    -0.01100
H767        H  0.55538160  0.85852258  0.92173239     0.12700
H768        H  0.50814163  0.85842107  0.87889618     0.12700
C769        C  0.44631423  0.78204153  0.85661711    -0.10900
C770        C  0.42481365  0.80149700  0.84509362     0.06200
C771        C  0.42472825  0.82852030  0.86136625    -0.09700
C772        C  0.44633331  0.83620243  0.88741541    -0.11300
C773        C  0.46820922  0.81697281  0.89780632    -0.01100
C774        C  0.46807697  0.78994102  0.88204369    -0.10200
C775        C  0.40373100  0.79398246  0.81478179     0.06200
H776        H  0.40878965  0.84418741  0.85275759     0.08100
H777        H  0.44669243  0.85756988  0.89830535     0.11600
H778        H  0.48563603  0.77541163  0.88796677     0.11900
H779        H  0.44688402  0.76092460  0.84510643     0.08200
C780        C  0.41207664  0.77733722  0.78571081    -0.10900
C781        C  0.39231426  0.76889792  0.75802273    -0.10200
C782        C  0.36383752  0.77739290  0.75824583    -0.01100
C783        C  0.35555065  0.79502038  0.78632591    -0.11300
C784        C  0.37528681  0.80309639  0.81450113    -0.09700
H785        H  0.43396137  0.77072843  0.78430691     0.08200
H786        H  0.39931125  0.75563390  0.73639170     0.11900
H787        H  0.33362716  0.80171552  0.78716808     0.11600
H788        H  0.36810387  0.81581375  0.83650543     0.08200
C789        C  0.42862258  0.77757806  0.58773308    -0.10900
C790        C  0.42513059  0.77969886  0.54959232     0.06200
C791        C  0.39780294  0.77599678  0.53257414    -0.09700
C792        C  0.37459069  0.76991877  0.55302271    -0.11300
C793        C  0.37809533  0.76703898  0.59107171    -0.01100
C794        C  0.40540371  0.77106748  0.60823949    -0.10200
C795        C  0.44957240  0.78595642  0.52718111     0.06200
H796        H  0.39434851  0.77798510  0.50330256     0.08100
H797        H  0.35391891  0.76700684  0.53887726     0.11600
H798        H  0.40885232  0.76906984  0.63751161     0.11900
H799        H  0.44941955  0.78037441  0.60159678     0.08200
C800        C  0.46835745  0.80845643  0.53604479    -0.10900
C801        C  0.48866460  0.81676017  0.51192116    -0.10200
C802        C  0.49087986  0.80196479  0.97747522    -0.01100
C803        C  0.47447095  0.77741893  0.97072030    -0.11300
C804        C  0.45314054  0.77053214  0.49522602    -0.09700
H805        H  0.46619657  0.82070416  0.56051183     0.08200
H806        H  0.50145280  0.83545356  0.51810643     0.11900
H807        H  0.47700573  0.76487382  0.94676651     0.11600
H808        H  0.44065641  0.75095667  0.98751008     0.08200
C809        C  0.29585015  0.62842004  0.76665226    -0.10900
C810        C  0.28984151  0.63459949  0.80263410     0.06200
C811        C  0.28574316  0.66304520  0.81240661    -0.09700
C812        C  0.28773329  0.68490608  0.78669817    -0.11300
C813        C  0.29428225  0.67879114  0.75082423    -0.01100
C814        C  0.29819642  0.65026277  0.74108247    -0.10200
C815        C  0.28867530  0.61129926  0.82985491     0.06200
H816        H  0.28097374  0.66833129  0.83991059     0.08100
H817        H  0.28469364  0.70667015  0.79514184     0.11600
H818        H  0.30337085  0.64482069  0.71378368     0.11900
H819        H  0.29942665  0.60666240  0.75852058     0.08200
C820        C  0.27361390  0.58630769  0.82092243    -0.10900
C821        C  0.27521794  0.56293439  0.84450284    -0.10200
C822        C  0.29199817  0.56394116  0.87747984    -0.01100
C823        C  0.30605660  0.58935363  0.88730849    -0.11300
C824        C  0.30422123  0.61295439  0.86376753    -0.09700
H825        H  0.26121618  0.58460062  0.79517289     0.08200
H826        H  0.26420656  0.54355280  0.83629388     0.11900
H827        H  0.31972348  0.59047829  0.91208448     0.11600
H828        H  0.31621557  0.63193525  0.87113320     0.08200
C829        C  0.31411061  0.58111495  0.51247508    -0.10900
C830        C  0.29109938  0.60042777  0.51076400     0.06200
C831        C  0.26843447  0.59550827  0.48455193    -0.09700
C832        C  0.26930975  0.57273567  0.46013518    -0.11300
C833        C  0.29521665  0.55414867  0.96177548    -0.01100
C834        C  0.31707248  0.55903872  0.98868642    -0.10200
C835        C  0.29135049  0.62589366  0.53541198     0.06200
H836        H  0.25004970  0.60934787  0.48262882     0.08100
H837        H  0.25202339  0.56995822  0.43957619     0.11600
H838        H  0.33574153  0.54554897  0.99039793     0.11900
H839        H  0.33232316  0.58424753  0.53149035     0.08200
C840        C  0.30548495  0.62482488  0.57035840    -0.10900
C841        C  0.30771598  0.64905197  0.59233818    -0.10200
C842        C  0.29531227  0.67500733  0.58056093    -0.01100
C843        C  0.28017254  0.67601086  0.54638205    -0.11300
C844        C  0.27845095  0.65186921  0.52394328    -0.09700
H845        H  0.31500622  0.60524298  0.58089859     0.08200
H846        H  0.31922784  0.64746715  0.61874534     0.11900
H847        H  0.27056275  0.69575005  0.53642963     0.11600
H848        H  0.26772898  0.65392123  0.49714072     0.08200
C849        C  0.30902465  0.38923904  0.54054496    -0.10900
C850        C  0.29102950  0.40538557  0.01961947     0.06200
C851        C  0.26883653  0.39075309  0.00034778    -0.09700
C852        C  0.26638323  0.36117683  0.00330641    -0.11300
C853        C  0.28576408  0.34540590  0.02605012    -0.01100
C854        C  0.30644156  0.35960508  0.54460386    -0.10200
C855        C  0.29652279  0.43584025  0.01053723     0.06200
H856        H  0.25427512  0.40195766  0.98126131     0.08100
H857        H  0.24967507  0.35050809  0.98699689     0.11600
H858        H  0.32190269  0.34827251  0.56234422     0.11900
H859        H  0.32637243  0.40011960  0.55536972     0.08200
C860        C  0.27389451  0.45512484  0.00340070    -0.10900
C861        C  0.27812833  0.48087445  0.98502189    -0.10200
C862        C  0.30497308  0.48761846  0.97319001    -0.01100
C863        C  0.32812294  0.46996039  0.98398719    -0.11300
C864        C  0.32399990  0.44442653  0.00269195    -0.09700
H865        H  0.25057114  0.44769248  0.50727734     0.08200
H866        H  0.25682849  0.49265375  0.47468102     0.11900
H867        H  0.34891386  0.47441389  0.97449866     0.11600
H868        H  0.34187380  0.43010851  0.00755313     0.08200
C869        C  0.11432452  0.27885930  0.68010160    -0.10900
C870        C  0.14153396  0.29112618  0.68379909     0.06200
C871        C  0.14717932  0.31186466  0.71082102    -0.09700
C872        C  0.12573218  0.32084830  0.73264155    -0.11300
C873        C  0.09852959  0.30901416  0.72790133    -0.01100
C874        C  0.09307220  0.28773211  0.70196380    -0.10200
C875        C  0.16333906  0.28306523  0.65842079     0.06200
H876        H  0.16803002  0.32141713  0.71473755     0.08100
H877        H  0.13009448  0.33750119  0.75242894     0.11600
H878        H  0.07197334  0.27872901  0.69774970     0.11900
H879        H  0.10903687  0.26323308  0.65926854     0.08200
C880        C  0.16527257  0.25487509  0.64621619    -0.10900
C881        C  0.18485524  0.24749564  0.62111426    -0.10200
C882        C  0.20324302  0.26803940  0.60799205    -0.01100
C883        C  0.20149383  0.29619132  0.62024761    -0.11300
C884        C  0.18164563  0.30366227  0.64505329    -0.09700
H885        H  0.15182338  0.23838092  0.65634512     0.08200
H886        H  0.18595875  0.22554820  0.61251365     0.11900
H887        H  0.21536625  0.31248811  0.61049677     0.11600
H888        H  0.18034321  0.32566997  0.65329111     0.08200
C889        C  0.17833887  0.27660521  0.87519296    -0.10900
C890        C  0.15097472  0.28078339  0.88729588     0.06200
C891        C  0.14757533  0.28003935  0.92491187    -0.09700
C892        C  0.17072906  0.27423252  0.94970515    -0.11300
C893        C  0.19794475  0.26937261  0.93754165    -0.01100
C894        C  0.20157449  0.27112850  0.90002875    -0.10200
C895        C  0.12615209  0.28590941  0.86073606     0.06200
H896        H  0.12681741  0.28315503  0.93513802     0.08100
H897        H  0.16722875  0.27314674  0.97843512     0.11600
H898        H  0.22224009  0.26748791  0.88975723     0.11900
H899        H  0.18177906  0.27758095  0.84644469     0.08200
C900        C  0.10583364  0.30687580  0.86721438    -0.10900
C901        C  0.08396191  0.31336778  0.84079628    -0.10200
C902        C  0.08185154  0.29905355  0.80732473    -0.01100
C903        C  0.10095922  0.27675867  0.80189905    -0.11300
C904        C  0.12296564  0.27038388  0.82817399    -0.09700
H905        H  0.10768082  0.31927505  0.89194117     0.08200
H906        H  0.06978609  0.33089143  0.84551623     0.11900
H907        H  0.09956885  0.26502815  0.77666688     0.11600
H908        H  0.13782830  0.25361370  0.82273623     0.08200
C909        C  0.28227386  0.12078655  0.61511059    -0.10900
C910        C  0.28392537  0.12420451  0.65308644     0.06200
C911        C  0.28244257  0.15186382  0.66721215    -0.09700
C912        C  0.27923719  0.17552127  0.64396460    -0.11300
C913        C  0.27704150  0.17211406  0.60596961    -0.01100
C914        C  0.27862796  0.14443818  0.59181331    -0.10200
C915        C  0.28708308  0.09913912  0.67806567     0.06200
H916        H  0.28397079  0.15520514  0.69633932     0.08100
H917        H  0.27801671  0.19649202  0.65581157     0.11600
H918        H  0.27699889  0.14104942  0.56269960     0.11900
H919        H  0.28322748  0.09973303  0.60344107     0.08200
C920        C  0.27044434  0.09687448  0.70818644    -0.10900
C921        C  0.27440008  0.07424482  0.73290660    -0.10200
C922        C  0.29563507  0.05372847  0.72874369    -0.01100
C923        C  0.31151213  0.05532054  0.69784246    -0.11300
C924        C  0.30717406  0.07769625  0.67264589    -0.09700
H925        H  0.25440374  0.11273546  0.71270002     0.08200
H926        H  0.26128317  0.07316186  0.75585058     0.11900
H927        H  0.32813770  0.03994892  0.69403784     0.11600
H928        H  0.32033508  0.07888284  0.64971995     0.08200
C929        C  0.27801159  0.08763998  0.86389333    -0.10900
C930        C  0.29157814  0.11356679  0.85700662     0.06200
C931        C  0.30900333  0.11505337  0.82740894    -0.09700
C932        C  0.31288558  0.09106250  0.80557135    -0.11300
C933        C  0.29945329  0.06520051  0.81302541    -0.01100
C934        C  0.28196263  0.06385416  0.84230503    -0.10200
C935        C  0.28769068  0.13839906  0.88141641     0.06200
H936        H  0.31967137  0.13470600  0.82122487     0.08100
H937        H  0.32691807  0.09246753  0.78355380     0.11600
H938        H  0.27169021  0.04405789  0.84893440     0.11900
H939        H  0.26491993  0.08541731  0.88677115     0.08200
C940        C  0.26108766  0.14343945  0.89521610    -0.10900
C941        C  0.25758641  0.16489558  0.92060845    -0.10200
C942        C  0.28051784  0.18222789  0.93289776    -0.01100
C943        C  0.30698978  0.17794220  0.91827955    -0.11300
C944        C  0.31054879  0.15622790  0.89284044    -0.09700
H945        H  0.24284131  0.13062354  0.88648748     0.08200
H946        H  0.23675515  0.16783974  0.93068738     0.11900
H947        H  0.32504989  0.19103567  0.92694995     0.11600
H948        H  0.33137655  0.15285409  0.88296794     0.08200
C949        C  0.31125432  0.89123171  0.64780547    -0.10900
C950        C  0.29252346  0.90542880  0.66985453     0.06200
C951        C  0.27048780  0.88958019  0.68408451    -0.09700
C952        C  0.26814964  0.86021603  0.67813205    -0.11300
C953        C  0.28753530  0.84581535  0.65735910    -0.01100
C954        C  0.30865801  0.86183203  0.64140975    -0.10200
C955        C  0.29775798  0.93553339  0.68185915     0.06200
H956        H  0.25590677  0.89957034  0.70158287     0.08100
H957        H  0.25156206  0.84859971  0.69073704     0.11600
H958        H  0.32397284  0.85142398  0.62533126     0.11900
H959        H  0.32839391  0.90274508  0.63625292     0.08200
C960        C  0.32543501  0.94432993  0.69316272    -0.10900
C961        C  0.32995702  0.96963788  0.71259987    -0.10200
C962        C  0.30703295  0.98701342  0.72090433    -0.01100
C963        C  0.27969303  0.97989419  0.70635488    -0.11300
C964        C  0.27507438  0.95434563  0.68710953    -0.09700
H965        H  0.34340645  0.93043822  0.68995846     0.08200
H966        H  0.35116394  0.97431262  0.72415597     0.11900
H967        H  0.26157627  0.99255513  0.71298279     0.11600
H968        H  0.25351548  0.94844431  0.67834609     0.08200
C969        C  0.09659671  0.73241382  0.66680769    -0.10900
C970        C  0.11351807  0.75641389  0.66082451     0.06200
C971        C  0.10230622  0.78356743  0.66693103    -0.09700
C972        C  0.07630476  0.78642812  0.68285647    -0.11300
C973        C  0.06083910  0.76225818  0.69218215    -0.01100
C974        C  0.07042337  0.73533958  0.68224014    -0.10200
C975        C  0.14427636  0.75302628  0.65495188     0.06200
H976        H  0.11491033  0.80242784  0.66287377     0.08100
H977        H  0.06965584  0.80733617  0.69116639     0.11600
H978        H  0.05920522  0.71638972  0.69001952     0.11900
H979        H  0.10462909  0.71124370  0.66215122     0.08200
C980        C  0.16088830  0.73447724  0.67767740    -0.10900
C981        C  0.19042134  0.73379157  0.67650704    -0.10200
C982        C  0.20420836  0.75140869  0.65227230    -0.01100
C983        C  0.18755072  0.76907136  0.62828752    -0.11300
C984        C  0.15787590  0.77009790  0.62988881    -0.09700
H985        H  0.15114497  0.72144345  0.69773628     0.08200
H986        H  0.20256648  0.71997223  0.69538865     0.11900
H987        H  0.19754453  0.78301661  0.60944716     0.11600
H988        H  0.14560916  0.78466476  0.61215273     0.08200
C989        C  0.60645588  0.82705308  0.99632037    -0.10900
C990        C  0.61509734  0.79930418  0.98836840     0.06200
C991        C  0.59417747  0.77894791  0.97842668    -0.09700
C992        C  0.56557015  0.78716717  0.97221774    -0.11300
C993        C  0.55764152  0.81579586  0.97593832    -0.01100
C994        C  0.57801881  0.83517175  0.99032029    -0.10200
C995        C  0.64578610  0.79327395  0.98488179     0.06200
H996        H  0.59987836  0.75891968  0.47113365     0.08100
H997        H  0.55037166  0.77191745  0.96061277     0.11600
H998        H  0.57247444  0.85737902  0.99324864     0.11900
H999        H  0.62208524  0.84304847  0.00452413     0.08200
C1000       C  0.66149162  0.81140611  0.96336776    -0.10900
C1001       C  0.69023986  0.80627464  0.95901722    -0.10200
C1002       C  0.70428326  0.78310353  0.97654721    -0.01100
C1003       C  0.68817177  0.76538637  0.49507106    -0.11300
C1004       C  0.65914129  0.77046023  0.49893605    -0.09700
H1005       H  0.65137131  0.82952930  0.94953737     0.08200
H1006       H  0.70164281  0.82083745  0.94238336     0.11900
H1007       H  0.69816825  0.74698033  0.50835069     0.11600
H1008       H  0.64731426  0.75591737  0.51508078     0.08200
C1009       C  0.92922195  0.77171245  0.56966867    -0.10900
C1010       C  0.92561069  0.76242203  0.60548040     0.06200
C1011       C  0.89785179  0.75690236  0.61545891    -0.09700
C1012       C  0.87436682  0.76140984  0.59081440    -0.11300
C1013       C  0.87790375  0.77171647  0.55549833    -0.01100
C1014       C  0.90566241  0.77631482  0.54499347    -0.10200
C1015       C  0.95030609  0.75995523  0.63302416     0.06200
H1016       H  0.89408190  0.75013108  0.64286149     0.08100
H1017       H  0.85333140  0.75761571  0.59986878     0.11600
H1018       H  0.90918069  0.78408350  0.51792170     0.11900
H1019       H  0.95026067  0.77571411  0.56078084     0.08200
C1020       C  0.95080276  0.73883925  0.66034162    -0.10900
C1021       C  0.97221738  0.73850262  0.68853709    -0.10200
C1022       C  0.99377503  0.75911294  0.69006299    -0.01100
C1023       C  0.99426399  0.77932021  0.66192627    -0.11300
C1024       C  0.97271543  0.77981591  0.63375693    -0.09700
H1025       H  0.93436292  0.72278465  0.66028815     0.08200
H1026       H  0.97167707  0.72244793  0.70968551     0.11900
H1027       H  0.01053689  0.79556925  0.66274843     0.11600
H1028       H  0.97294088  0.79659278  0.61351455     0.08200
C1029       C  0.88655472  0.74818854  0.84168211    -0.10900
C1030       C  0.90518431  0.77020355  0.83309534     0.06200
C1031       C  0.90246868  0.79682254  0.84962038    -0.09700
C1032       C  0.88191904  0.80126329  0.87458483    -0.11300
C1033       C  0.86332901  0.77927635  0.88339683    -0.01100
C1034       C  0.86566340  0.75274721  0.86636451    -0.10200
C1035       C  0.92863061  0.76520158  0.80889805     0.06200
H1036       H  0.91680376  0.81403980  0.84397286     0.08100
H1037       H  0.88065174  0.82198850  0.88706722     0.11600
H1038       H  0.85163686  0.73540071  0.87252417     0.11900
H1039       H  0.88819578  0.72746167  0.82930861     0.08200
C1040       C  0.94643225  0.74137602  0.81452755    -0.10900
C1041       C  0.97112371  0.73885657  0.79581673    -0.10200
C1042       C  0.97809370  0.75971260  0.77050960    -0.01100
C1043       C  0.95949206  0.78261718  0.76311308    -0.11300
C1044       C  0.93504197  0.78546494  0.78236575    -0.09700
H1045       H  0.94217543  0.72558822  0.83499337     0.08200
H1046       H  0.98544476  0.72121391  0.80216526     0.11900
H1047       H  0.96476392  0.79913972  0.74408355     0.11600
H1048       H  0.92159631  0.80396175  0.77737991     0.08200
C1049       C  0.74734107  0.93205320  0.63927318    -0.10900
C1050       C  0.76870280  0.91208856  0.64905411     0.06200
C1051       C  0.78613485  0.91638430  0.68109511    -0.09700
C1052       C  0.78366830  0.94127093  0.70136133    -0.11300
C1053       C  0.76384724  0.96224867  0.68972301    -0.01100
C1054       C  0.74505338  0.95695747  0.65931277    -0.10200
C1055       C  0.77494148  0.88902872  0.62343301     0.06200
H1056       H  0.80259903  0.90116469  0.68939172     0.08100
H1057       H  0.79868468  0.94504162  0.72438795     0.11600
H1058       H  0.72969173  0.97293313  0.64977951     0.11900
H1059       H  0.73374294  0.92942520  0.61461828     0.08200
C1060       C  0.75292534  0.87323769  0.60558489    -0.10900
C1061       C  0.75886427  0.85349008  0.57881436    -0.10200
C1062       C  0.78685918  0.84957799  0.56891946    -0.01100
C1063       C  0.80886588  0.86514984  0.58705375    -0.11300
C1064       C  0.80299334  0.88451172  0.61417438    -0.09700
H1065       H  0.73111668  0.87634046  0.61217967     0.08200
H1066       H  0.74149883  0.84169497  0.56534521     0.11900
H1067       H  0.83067304  0.86237400  0.58025485     0.11600
H1068       H  0.82032658  0.89670741  0.62704405     0.08200
C1069       C  0.79339115  0.95982260  0.82519330    -0.10900
C1070       C  0.77136794  0.93976895  0.82712703     0.06200
C1071       C  0.74772055  0.94178643  0.80181094    -0.09700
C1072       C  0.74692382  0.96212517  0.77393294    -0.11300
C1073       C  0.76957704  0.98108432  0.77094130    -0.01100
C1074       C  0.79243414  0.98036380  0.79738151    -0.10200
C1075       C  0.77412011  0.91535329  0.85315580     0.06200
H1076       H  0.73012018  0.92710870  0.80297711     0.08100
H1077       H  0.72896476  0.96263188  0.75401884     0.11600
H1078       H  0.81019041  0.99473688  0.79534591     0.11900
H1079       H  0.81201834  0.95873671  0.84401204     0.08200
C1080       C  0.76581127  0.88796479  0.84157527    -0.10900
C1081       C  0.77026919  0.86441188  0.86454748    -0.10200
C1082       C  0.78319374  0.86753525  0.89979373    -0.01100
C1083       C  0.79075997  0.89502068  0.91191938    -0.11300
C1084       C  0.78635321  0.91867439  0.88879676    -0.09700
H1085       H  0.75678358  0.88450101  0.81414064     0.08200
H1086       H  0.76423161  0.84359403  0.85426559     0.11900
H1087       H  0.80078089  0.89817136  0.93893435     0.11600
H1088       H  0.79275614  0.93950710  0.89866726     0.08200
C1089       C  0.79003364  0.58425031  0.47462395    -0.10900
C1090       C  0.81249891  0.60192682  0.46528025     0.06200
C1091       C  0.84141443  0.59042539  0.96377026    -0.09700
C1092       C  0.84676628  0.56303881  0.97750151    -0.11300
C1093       C  0.82362082  0.54647263  0.49220933    -0.01100
C1094       C  0.79558073  0.55662400  0.48796998    -0.10200
C1095       C  0.80848030  0.63326855  0.46229475     0.06200
H1096       H  0.85914765  0.60337364  0.95640221     0.08100
H1097       H  0.86852703  0.55559333  0.98106214     0.11600
H1098       H  0.77845819  0.54444698  0.49858130     0.11900
H1099       H  0.76867106  0.59266358  0.47494279     0.08200
C1100       C  0.78521546  0.64559651  0.44197766    -0.10900
C1101       C  0.78067614  0.67517610  0.44272875    -0.10200
C1102       C  0.79892374  0.69267231  0.46457559    -0.01100
C1103       C  0.82342441  0.68014209  0.98433773    -0.11300
C1104       C  0.82854226  0.65103505  0.98212723    -0.09700
H1105       H  0.77045007  0.63233540  0.42592649     0.08200
H1106       H  0.76245057  0.68420636  0.42728414     0.11900
H1107       H  0.83780953  0.69290276  0.00166398     0.11600
H1108       H  0.84637352  0.64206001  0.99842884     0.08200
C1109       C  0.91063595  0.30055402  0.83712862    -0.10900
C1110       C  0.92786832  0.28819005  0.81189233     0.06200
C1111       C  0.91480722  0.27175364  0.78358558    -0.09700
C1112       C  0.88509921  0.26892534  0.77969780    -0.11300
C1113       C  0.86785563  0.28239530  0.80411902    -0.01100
C1114       C  0.88111111  0.29770194  0.83332118    -0.10200
C1115       C  0.95872300  0.29531333  0.81257867     0.06200
H1116       H  0.92745107  0.26217642  0.76344890     0.08100
H1117       H  0.87562402  0.25676237  0.75713801     0.11600
H1118       H  0.86861636  0.30807914  0.85300302     0.11900
H1119       H  0.91998906  0.31304620  0.85946515     0.08200
C1120       C  0.96746879  0.32364061  0.81820439    -0.10900
C1121       C  0.99509244  0.33201684  0.81182565    -0.10200
C1122       C  0.01471320  0.31229988  0.79986783    -0.01100
C1123       C  0.00702635  0.28344221  0.79784872    -0.11300
C1124       C  0.97915491  0.27502587  0.80391286    -0.09700
H1125       H  0.95232859  0.33988781  0.82459585     0.08200
H1126       H  0.00037792  0.35443692  0.81299802     0.11900
H1127       H  0.02162688  0.26790737  0.78805612     0.11600
H1128       H  0.97316404  0.25297519  0.79988191     0.08200
C1129       C  0.79577290  0.14800610  0.82638603    -0.10900
C1130       C  0.77490795  0.13299144  0.80526777     0.06200
C1131       C  0.75458235  0.14837510  0.78341607    -0.09700
C1132       C  0.75602708  0.17798817  0.78112191    -0.11300
C1133       C  0.77758042  0.19293223  0.80102558    -0.01100
C1134       C  0.79691102  0.17776586  0.82458003    -0.10200
C1135       C  0.77665391  0.10166335  0.80115116     0.06200
H1136       H  0.73852495  0.13740252  0.76638715     0.08100
H1137       H  0.74062809  0.18917082  0.76310174     0.11600
H1138       H  0.81364115  0.18880356  0.84038381     0.11900
H1139       H  0.81171292  0.13664914  0.84337254     0.08200
C1140       C  0.80248968  0.08930168  0.79261814    -0.10900
C1141       C  0.80280403  0.06234831  0.77686890    -0.10200
C1142       C  0.77742121  0.04723405  0.77002786    -0.01100
C1143       C  0.75226206  0.05788314  0.78295774    -0.11300
C1144       C  0.75183435  0.08502946  0.79831755    -0.09700
H1145       H  0.82189677  0.10165617  0.79424070     0.08200
H1146       H  0.82229170  0.05469931  0.76634389     0.11900
H1147       H  0.73237910  0.04674509  0.77723605     0.11600
H1148       H  0.73168616  0.09399860  0.80497938     0.08200
C1149       C  0.81326486  0.36474521  0.64391385    -0.10900
C1150       C  0.79829745  0.39064873  0.64026676     0.06200
C1151       C  0.77711393  0.39623649  0.66445830    -0.09700
C1152       C  0.77092321  0.37650863  0.69125395    -0.11300
C1153       C  0.78609104  0.35086905  0.69511359    -0.01100
C1154       C  0.80736924  0.34517875  0.67120267    -0.10200
C1155       C  0.80545536  0.41247884  0.61275222     0.06200
H1156       H  0.76564322  0.41620161  0.66339890     0.08100
H1157       H  0.75450131  0.38156274  0.70936225     0.11600
H1158       H  0.81921453  0.32541510  0.67326229     0.11900
H1159       H  0.82943627  0.35945523  0.62558000     0.08200
C1160       C  0.83373181  0.41654957  0.60374699    -0.10900
C1161       C  0.84090194  0.43962262  0.58198908    -0.10200
C1162       C  0.82001622  0.45903297  0.56882397    -0.01100
C1163       C  0.79176678  0.45460345  0.57683438    -0.11300
C1164       C  0.78442775  0.43120784  0.59772336    -0.09700
H1165       H  0.85063900  0.40296190  0.61517225     0.08200
H1166       H  0.86298818  0.44318590  0.57698456     0.11900
H1167       H  0.77559579  0.47022067  0.56901213     0.11600
H1168       H  0.76237218  0.42858312  0.60339571     0.08200
C1169       C  0.77673412  0.44860022  0.95954596    -0.10900
C1170       C  0.79667679  0.43987558  0.93519225     0.06200
C1171       C  0.82321713  0.45345775  0.93608140    -0.09700
C1172       C  0.83039596  0.47390161  0.96259204    -0.11300
C1173       C  0.81105157  0.48133336  0.98827837    -0.01100
C1174       C  0.78375631  0.46947385  0.98553880    -0.10200
C1175       C  0.79067061  0.41519141  0.91101238     0.06200
H1176       H  0.83895842  0.44709726  0.91762269     0.08100
H1177       H  0.85155714  0.48290313  0.96433600     0.11600
H1178       H  0.76813133  0.47581130  0.00403504     0.11900
H1179       H  0.75593255  0.43881712  0.95890345     0.08200
C1180       C  0.78115268  0.38953655  0.92565070    -0.10900
C1181       C  0.77671191  0.36563988  0.90363182    -0.10200
C1182       C  0.78110892  0.36704821  0.86632971    -0.01100
C1183       C  0.79023628  0.39281661  0.85148500    -0.11300
C1184       C  0.79536785  0.41659180  0.87377076    -0.09700
H1185       H  0.77768802  0.38783401  0.95435229     0.08200
H1186       H  0.76946783  0.34610149  0.91571716     0.11900
H1187       H  0.79378953  0.39442313  0.82280717     0.11600
H1188       H  0.80276127  0.43614880  0.86191404     0.08200
C1189       C  0.61904149  0.27324291  0.59461051    -0.10900
C1190       C  0.62311348  0.25748453  0.62711938     0.06200
C1191       C  0.60419583  0.23514297  0.63332838    -0.09700
C1192       C  0.58353714  0.22703430  0.60619865    -0.11300
C1193       C  0.58112934  0.24120509  0.57235982    -0.01100
C1194       C  0.59801863  0.26544207  0.56779860    -0.10200
C1195       C  0.64804229  0.26304504  0.65328209     0.06200
H1196       H  0.60663606  0.22267133  0.65815096     0.08100
H1197       H  0.57093201  0.20823333  0.61058743     0.11600
H1198       H  0.59594428  0.27762975  0.54287608     0.00300
H1199       H  0.63270602  0.29113497  0.58948200     0.08200
C1200       C  0.67528972  0.26701022  0.64066690    -0.10900
C1201       C  0.69899014  0.27125111  0.66515336    -0.10200
C1202       C  0.69596189  0.27208672  0.70283822    -0.01100
C1203       C  0.66871081  0.26813442  0.71543879    -0.11300
C1204       C  0.64510610  0.26340322  0.69099207    -0.09700
H1205       H  0.67832781  0.26643837  0.61180874     0.08200
H1206       H  0.71961711  0.27445577  0.65452917     0.11900
H1207       H  0.66562424  0.26873317  0.74428280     0.11600
H1208       H  0.62442946  0.26044013  0.70156504     0.08200
C1209       C  0.64902225  0.21960248  0.96756934    -0.10900
C1210       C  0.64498561  0.24626245  0.95023350     0.06200
C1211       C  0.62033318  0.26192494  0.95605575    -0.09700
C1212       C  0.59988892  0.25084312  0.97780234    -0.11300
C1213       C  0.60417452  0.22446070  0.99526163    -0.01100
C1214       C  0.62875655  0.20881616  0.98987615    -0.10200
C1215       C  0.66590222  0.25705558  0.92514501     0.06200
H1216       H  0.61659910  0.28256588  0.94340607     0.08100
H1217       H  0.58033799  0.26255975  0.98031919     0.11600
H1218       H  0.63183300  0.18791017  0.00209458     0.11900
H1219       H  0.66734460  0.20658292  0.96293443     0.08200
C1220       C  0.69497083  0.25134805  0.93230647    -0.10900
C1221       C  0.71450435  0.25959029  0.90761632    -0.10200
C1222       C  0.70554531  0.27428102  0.87558209    -0.01100
C1223       C  0.67674767  0.28109753  0.86885928    -0.11300
C1224       C  0.65700518  0.27227937  0.89326645    -0.09700
H1225       H  0.70268726  0.24038737  0.95697422     0.08200
H1226       H  0.73674809  0.25454340  0.91365228     0.11900
H1227       H  0.66943107  0.29234674  0.84421540     0.11600
H1228       H  0.63473171  0.27668847  0.88660253     0.08200
C1229       C  0.47762472  0.25671132  0.55081054    -0.10900
C1230       C  0.45745029  0.23573936  0.55797487     0.06200
C1231       C  0.46685954  0.20806616  0.06758848    -0.09700
C1232       C  0.49531019  0.20007616  0.06670287    -0.11300
C1233       C  0.51554795  0.22145842  0.55655968    -0.01100
C1234       C  0.50650640  0.24966769  0.55038242    -0.10200
C1235       C  0.42643655  0.24168951  0.55309674     0.06200
H1236       H  0.45150749  0.19209541  0.07433228     0.08100
H1237       H  0.50117015  0.17811311  0.07234442     0.11600
H1238       H  0.52128514  0.26564863  0.54198888     0.11900
H1239       H  0.47088596  0.27823391  0.54398102     0.08200
C1240       C  0.40800541  0.23095297  0.57816441    -0.10900
C1241       C  0.37866127  0.23448727  0.57231266    -0.10200
C1242       C  0.36685309  0.24875393  0.54109579    -0.01100
C1243       C  0.38581370  0.26028121  0.01598824    -0.11300
C1244       C  0.41531244  0.25652985  0.02145247    -0.09700
H1245       H  0.41632102  0.21970167  0.60235061     0.08200
H1246       H  0.36518860  0.22580521  0.59229772     0.11900
H1247       H  0.37724877  0.27079321  0.99138207     0.11600
H1248       H  0.42878549  0.26380393  0.00063233     0.08200
loop_ 
_geom_bond_atom_site_label_1 
_geom_bond_atom_site_label_2 
_geom_bond_distance 
_geom_bond_site_symmetry_2 
_ccdc_geom_bond_type 
N1            C2   1.360       .  A
N1          C629   1.359       .  A
N1          C569   1.450       .  S
C2          C609   1.478       .  S
C2          C627   1.385       .  A
C3            C4   1.367       .  A
C3          C626   1.386       .  A
C3            H6   1.082       .  S
C4            C5   1.377       .  A
C4            H7   1.082       .  S
C5          N625   1.359       .  A
C5          C589   1.469       .  S
O8          Cr26   1.961       .  S
O8           C16   1.259       .  A
O9          Cr26   2.004       .  S
O9           C10   1.264       .  A
C10         C558   1.480       .  S
C10          O11   1.260       .  A
O11         Cr27   1.986       .  S
O12         Cr27   2.014       .  S
O12          C13   1.270       .  A
C13         C529   1.482       .  S
C13          O14   1.261       .  A
O14         Cr28   1.972       .  S
O15         Cr28   2.041       .  S
O15          C16   1.274       .  A
C16         C489   1.489       .  S
O17         Cr26   2.010       .  S
O17          C25   1.264       .  A
O18         Cr26   1.956       .  S
O18          C19   1.258       .  A
C19         C598   1.469       .  S
C19          O20   1.269       .  A
O20         Cr27   2.021       .  S
O21         Cr27   1.979       .  S
O21          C22   1.259       .  A
C22         C578   1.491       .  S
C22          O23   1.270       .  A
O23         Cr28   2.030       .  S
O24         Cr28   1.978       .  S
O24          C25   1.260       .  A
C25         C509   1.477       .  S
Cr26         O29   1.771       .  S
Cr27         O29   1.769       .  S
Cr28         O29   1.770       .  S
N30         C658   1.359       .  A
N30         C655   1.357       .  A
N30         C549   1.441       .  S
C31         N654   1.356       .  A
C31         C469   1.475   1_554  S
C31          C32   1.383       .  A
C32          C33   1.372       .  A
C32          H35   1.082       .  S
C33          C34   1.381       .  A
C33          H36   1.082       .  S
C34         N654   1.359       .  A
C34         C538   1.477       .  S
N37          C41   1.360   1_545  A
N37          C38   1.355       .  A
N37         C449   1.442   1_545  S
C38         C518   1.468       .  S
C38          C39   1.381       .  A
C39          C40   1.370       .  A
C39          H42   1.082       .  S
C40          C41   1.382   1_545  A
C40          H43   1.082       .  S
C41         C429   1.477       .  S
O44         Cr62   1.983       .  S
O44         C676   1.261       .  A
O45         Cr62   2.012       .  S
O45          C46   1.268       .  A
C46         C458   1.487       .  S
C46          O47   1.262       .  A
O47        Cr687   1.983       .  S
O48         Cr63   2.011   1_554  S
O48          C49   1.268       .  A
C49         C438   1.476       .  S
C49          O50   1.261       .  A
O50         Cr64   1.976       .  S
O51         Cr64   2.021   1_556  S
O51          C52   1.266       .  A
C52        C1002   1.489       .  S
C52         O668   1.261       .  A
O53         Cr62   2.027       .  S
O53         C685   1.269       .  A
O54         Cr62   1.982       .  S
O54          C55   1.262       .  A
C55         C409   1.485       .  S
C55          O56   1.268       .  A
O56        Cr687   2.013       .  S
O57         Cr63   1.984   1_554  S
O57          C58   1.261       .  A
C58         C389   1.487       .  S
C58          O59   1.267       .  A
O59         Cr64   2.014       .  S
O60         Cr64   1.966   1_556  S
O60          C61   1.259       .  A
C61         C478   1.480       .  S
C61         O677   1.269       .  A
Cr62        O689   1.771       .  S
Cr63        O671   1.980       .  S
Cr63        O680   2.008       .  S
Cr63         O65   1.769       .  S
Cr64         O65   1.769   1_554  S
O65        Cr686   1.770       .  S
N66          C70   1.360       .  A
N66          C67   1.359       .  A
N66         C398   1.443   1_455  S
C67         C349   1.476       .  S
C67          C68   1.382       .  A
C68          C69   1.372       .  A
C68          H71   1.082       .  S
C69          C70   1.380       .  A
C69          H72   1.082       .  S
C70         C418   1.478   1_455  S
N73          C77   1.365       .  A
N73          C74   1.366       .  A
N73         C298   1.447       .  S
C74         C338   1.487   1_545  S
C74          C75   1.383   1_545  A
C75          C76   1.369   1_565  A
C75          H78   1.083       .  S
C76          C77   1.381       .  A
C76          H79   1.082       .  S
C77         C309   1.485       .  S
O80         Cr98   2.028       .  S
O80          C88   1.272       .  A
O81         Cr98   1.977       .  S
O81         C706   1.259       .  A
C82         C853   1.487       .  S
C82          O83   1.267       .  A
C82         O705   1.260   1_554  A
O83         Cr99   2.023       .  S
O84         Cr99   1.972       .  S
O84          C85   1.258       .  A
C85         C258   1.474       .  S
C85          O86   1.266       .  A
O86        Cr100   2.012       .  S
O87        Cr724   1.975       .  S
O87          C88   1.261       .  A
C88         C269   1.487       .  S
O89         Cr98   1.986       .  S
O89          C97   1.262       .  A
O90         Cr98   2.035       .  S
O90         C715   1.273       .  A
C91         C618   1.485       .  S
C91          O92   1.259       .  A
C91         O714   1.272       .  A
O92         Cr99   1.960       .  S
O93         Cr99   2.026       .  S
O93          C94   1.271       .  A
C94         C289   1.489       .  S
C94          O95   1.263       .  A
O95        Cr100   1.983       .  S
O96        Cr724   2.011       .  S
O96          C97   1.267       .  A
C97         C318   1.488       .  S
Cr98        O725   1.769       .  S
Cr99        O101   1.770       .  S
Cr100       O711   1.976   1_554  S
Cr100       O720   2.010   1_554  S
Cr100       O101   1.767       .  S
O101       Cr722   1.771   1_554  S
N102        C106   1.357       .  A
N102        C103   1.359       .  A
N102        C278   1.445       .  S
C103        C498   1.479       .  S
C103        C104   1.385       .  A
C104        C105   1.370       .  A
C104        H107   1.082       .  S
C105        C106   1.377       .  A
C105        H108   1.082       .  S
C106        C249   1.468       .  S
N109        C113   1.362       .  A
N109        C110   1.362       .  A
N109        C209   1.445       .  S
C110        C238   1.478       .  S
C110        C111   1.381       .  A
C111        C112   1.368       .  A
C111        H114   1.083       .  S
C112        C113   1.382       .  A
C112        H115   1.083       .  S
C113        C198   1.481       .  S
O116       Cr134   1.975       .  S
O116        C124   1.261       .  A
O117       Cr134   2.006       .  S
O117        C118   1.263       .  A
C118        C189   1.483       .  S
C118        O119   1.260       .  A
O119       Cr135   1.982       .  S
O120       Cr135   2.005       .  S
O120        C121   1.268       .  A
C121        C218   1.491       .  S
C121        O122   1.267       .  A
O122       Cr136   2.001       .  S
O123       Cr136   2.030       .  S
O123        C124   1.271       .  A
C124        C358   1.485       .  S
O125       Cr134   2.011       .  S
O125        C133   1.266       .  A
O126       Cr134   1.976       .  S
O126        C127   1.262       .  A
C127        C158   1.476       .  S
C127        O128   1.267       .  A
O128       Cr135   2.006       .  S
O129       Cr135   1.980       .  S
O129        C130   1.259       .  A
C130        C169   1.488       .  S
C130        O131   1.267       .  A
O131       Cr136   2.015       .  S
O132       Cr136   2.004       .  S
O132        C133   1.265       .  A
C133        C329   1.494       .  S
Cr134       O137   1.775       .  S
Cr135       O137   1.770       .  S
Cr136       O137   1.778       .  S
N138        C142   1.362       .  A
N138        C139   1.362       .  A
N138        C178   1.448       .  S
C139        C369   1.483       .  S
C139        C140   1.385       .  A
C140        C141   1.367       .  A
C140        H143   1.082       .  S
C141        C142   1.378       .  A
C141        H144   1.082       .  S
C142        C149   1.475       .  S
C145        C146   1.408       .  A
C145        C150   1.396       .  A
C145        H155   1.082       .  S
C146        C151   1.492       .  S
C146        C147   1.409       .  A
C147        C148   1.400       .  A
C147        H152   1.082       .  S
C148        C149   1.402       .  A
C148        H153   1.083       .  S
C149        C150   1.401       .  A
C150        H154   1.083       .  S
C151        C156   1.408       .  A
C151        C160   1.408       .  A
C156        C157   1.396       .  A
C156        H161   1.082       .  S
C157        C158   1.402       .  A
C157        H162   1.083       .  S
C158        C159   1.404       .  A
C159        C160   1.400       .  A
C159        H163   1.083       .  S
C160        H164   1.082       .  S
C165        C166   1.406       .  A
C165        C170   1.404       .  A
C165        H175   1.083       .  S
C166        C171   1.490       .  S
C166        C167   1.406       .  A
C167        C168   1.399       .  A
C167        H172   1.083       .  S
C168        C169   1.406       .  A
C168        H173   1.083       .  S
C169        C170   1.409       .  A
C170        H174   1.083       .  S
C171        C176   1.406       .  A
C171        C180   1.405   1_554  A
C176        C177   1.403       .  A
C176        H181   1.083       .  S
C177        C802   1.407   1_554  A
C177        H182   1.083       .  S
C178        C179   1.404       .  A
C178        C801   1.408       .  A
C179        C804   1.400       .  A
C179        H183   1.077       .  S
C180        C803   1.400       .  A
C180        H808   1.083       .  S
H184        C804   1.083       .  S
C185        C186   1.406       .  A
C185        C190   1.398       .  A
C185        H195   1.083       .  S
C186        C191   1.483       .  S
C186        C187   1.403       .  A
C187        C188   1.400       .  A
C187        H192   1.083       .  S
C188        C189   1.409       .  A
C188        H193   1.083       .  S
C189        C190   1.404       .  A
C190        H194   1.083       .  S
C191        C196   1.402       .  A
C191        C200   1.408       .  A
C196        C197   1.394       .  A
C196        H201   1.083       .  S
C197        C198   1.404       .  A
C197        H202   1.083       .  S
C198        C199   1.404       .  A
C199        C200   1.403       .  A
C199        H203   1.083       .  S
C200        H204   1.083       .  S
C205        C206   1.412       .  A
C205        C834   1.401   1_554  A
C205        H215   1.082       .  S
C206        C211   1.506       .  S
C206        C207   1.411   1_554  A
C207        C208   1.405       .  A
C207        H212   1.082       .  S
C208        C833   1.405       .  A
C208        H213   1.083       .  S
C209        C210   1.401       .  A
C209        C832   1.404       .  A
C210        C829   1.402       .  A
C210        H214   1.083       .  S
C211        C216   1.409       .  A
C211        C220   1.413       .  A
C216        C217   1.400       .  A
C216        H221   1.082       .  S
C217        C218   1.405       .  A
C217        H222   1.083       .  S
C218        C219   1.406       .  A
C219        C220   1.409       .  A
C219        H223   1.083       .  S
C220        H224   1.082   1_554  S
C225        C230   1.406       .  A
C225        C850   1.409       .  A
C225        H235   1.083       .  S
C226        C231   1.494       .  S
C226        C227   1.406       .  A
C226        C849   1.409       .  A
C227        C228   1.398       .  A
C227        H232   1.083       .  S
C228        C229   1.405       .  A
C228        H233   1.083       .  S
C229        C706   1.486       .  S
C229        C854   1.406       .  A
C230        C853   1.407       .  A
C230        H234   1.083       .  S
C231        C236   1.409       .  A
C231        C240   1.406       .  A
C236        C237   1.403       .  A
C236        H865   1.083       .  S
C237        C238   1.403       .  A
C237        H866   1.083       .  S
C238        C239   1.405       .  A
C239        C240   1.400       .  A
C239        H243   1.084       .  S
C240        H244   1.083       .  S
H241        C860   1.083       .  S
H242        C861   1.083       .  S
C245        C246   1.407       .  A
C245        C250   1.394       .  A
C245        H255   1.082       .  S
C246        C251   1.488       .  S
C246        C247   1.410       .  A
C247        C248   1.399       .  A
C247        H252   1.082       .  S
C248        C249   1.398       .  A
C248        H253   1.083       .  S
C249        C250   1.400       .  A
C250        H254   1.084       .  S
C251        C256   1.407       .  A
C251        C260   1.407       .  A
C256        C257   1.396       .  A
C256        H261   1.082       .  S
C257        C258   1.404       .  A
C257        H262   1.083       .  S
C258        C259   1.403       .  A
C259        C260   1.396       .  A
C259        H263   1.083       .  S
C260        H264   1.082       .  S
C265        C266   1.407       .  A
C265        C270   1.401       .  A
C265        H275   1.083       .  S
C266        C271   1.490       .  S
C266        C267   1.405       .  A
C267        C268   1.401       .  A
C267        H272   1.083       .  S
C268        C269   1.408       .  A
C268        H273   1.083       .  S
C269        C270   1.406       .  A
C270        H274   1.083       .  S
C271        C276   1.406       .  A
C271        C280   1.407       .  A
C276        C277   1.401       .  A
C276        H281   1.083       .  S
C277        C278   1.406       .  A
C277        H282   1.083       .  S
C278        C279   1.405       .  A
C279        C280   1.401       .  A
C279        H283   1.081       .  S
C280        H284   1.083       .  S
C285        C286   1.406       .  A
C285        C290   1.403       .  A
C285        H295   1.083       .  S
C286        C291   1.491       .  S
C286        C287   1.406       .  A
C287        C288   1.402       .  A
C287        H292   1.083       .  S
C288        C289   1.407       .  A
C288        H293   1.083       .  S
C289        C290   1.407       .  A
C290        H294   1.083       .  S
C291        C296   1.406       .  A
C291        C300   1.406       .  A
C296        C297   1.402       .  A
C296        H301   1.083       .  S
C297        C298   1.406       .  A
C297        H302   1.082       .  S
C298        C299   1.405       .  A
C299        C300   1.402       .  A
C299        H303   1.082       .  S
C300        H304   1.083       .  S
C305        C306   1.405       .  A
C305        C310   1.395       .  A
C305        H315   1.083       .  S
C306        C311   1.492       .  S
C306        C307   1.410       .  A
C307        C308   1.407       .  A
C307        H312   1.083       .  S
C308        C309   1.405       .  A
C308        H313   1.083       .  S
C309        C310   1.403       .  A
C310        H314   1.083       .  S
C311        C316   1.406       .  A
C311        C320   1.408       .  A
C316        C317   1.397       .  A
C316        H321   1.083       .  S
C317        C318   1.406       .  A
C317        H322   1.083       .  S
C318        C319   1.408       .  A
C319        C320   1.405       .  A
C319        H323   1.083       .  S
C320        H324   1.083       .  S
C325        C326   1.410       .  A
C325        C330   1.407       .  A
C325        H335   1.083       .  S
C326        C331   1.499       .  S
C326        C327   1.407       .  A
C327        C328   1.401       .  A
C327        H332   1.083       .  S
C328        C329   1.408       .  A
C328        H333   1.083       .  S
C329        C330   1.407       .  A
C330        H334   1.083       .  S
C331        C336   1.406       .  A
C331        C340   1.411       .  A
C336        C337   1.401       .  A
C336        H341   1.083       .  S
C337        C338   1.406       .  A
C337        H342   1.083       .  S
C338        C339   1.404       .  A
C339        C340   1.407       .  A
C339        H343   1.083       .  S
C340        H344   1.083       .  S
C345        C346   1.408       .  A
C345        C350   1.402       .  A
C345        H355   1.083       .  S
C346        C351   1.491       .  S
C346        C347   1.406       .  A
C347        C348   1.400       .  A
C347        H352   1.083       .  S
C348        C349   1.403       .  A
C348        H353   1.083       .  S
C349        C350   1.402       .  A
C350        H354   1.083       .  S
C351        C356   1.406       .  A
C351        C360   1.407       .  A
C356        C357   1.398       .  A
C356        H361   1.083       .  S
C357        C358   1.405       .  A
C357        H362   1.083       .  S
C358        C359   1.407       .  A
C359        C360   1.405       .  A
C359        H363   1.083       .  S
C360        H364   1.083       .  S
C365        C366   1.404       .  A
C365        C370   1.397       .  A
C365        H375   1.083       .  S
C366        C371   1.489       .  S
C366        C367   1.407       .  A
C367        C368   1.406       .  A
C367        H996   1.083       .  S
C368        C369   1.406       .  A
C368        H373   1.083       .  S
C369        C370   1.405       .  A
C370        H374   1.083       .  S
C371        C376   1.406       .  A
C371       C1004   1.406       .  A
H372        C991   1.083       .  S
C376        C377   1.397       .  A
C376        H381   1.083       .  S
C377        C378   1.404       .  A
C377        H382   1.083       .  S
C378        C676   1.487       .  S
C378       C1003   1.409       .  A
C379        C380   1.408   1_556  A
C379       C1002   1.410       .  A
C379        H383   1.083   1_556  S
C380        C995   1.406   1_554  A
C380        H384   1.083       .  S
C385        C386   1.408       .  A
C385        C390   1.403       .  A
C385        H395   1.082       .  S
C386        C391   1.495       .  S
C386        C387   1.407       .  A
C387        C388   1.398       .  A
C387        H392   1.083       .  S
C388        C389   1.405       .  A
C388        H393   1.083       .  S
C389        C390   1.407       .  A
C390        H394   1.083       .  S
C391        C396   1.408       .  A
C391        C400   1.409       .  A
C396        C397   1.398       .  A
C396        H401   1.083       .  S
C397        C398   1.403       .  A
C397        H402   1.083       .  S
C398        C399   1.403       .  A
C399        C400   1.402       .  A
C399        H403   1.082   1_655  S
C400        H404   1.082       .  S
C405        C406   1.406       .  A
C405        C410   1.402       .  A
C405        H415   1.083       .  S
C406        C411   1.485       .  S
C406        C407   1.404       .  A
C407        C408   1.398       .  A
C407        H412   1.083       .  S
C408        C409   1.406       .  A
C408        H413   1.083       .  S
C409        C410   1.407       .  A
C410        H414   1.083       .  S
C411        C416   1.405       .  A
C411        C420   1.408       .  A
C416        C417   1.398       .  A
C416        H421   1.083       .  S
C417        C418   1.403       .  A
C417        H422   1.083       .  S
C418        C419   1.402       .  A
C419        C420   1.401       .  A
C419        H423   1.083       .  S
C420        H424   1.083       .  S
C425        C426   1.403       .  A
C425        C430   1.395       .  A
C425        H435   1.083       .  S
C426        C431   1.481       .  S
C426        C427   1.406       .  A
C427        C428   1.398       .  A
C427        H432   1.083       .  S
C428        C429   1.402       .  A
C428        H433   1.083       .  S
C429        C430   1.404       .  A
C430        H434   1.083       .  S
C431        C436   1.405       .  A
C431        C440   1.404       .  A
C436        C437   1.400       .  A
C436        H441   1.083       .  S
C437        C438   1.405       .  A
C437        H442   1.083       .  S
C438        C439   1.404       .  A
C439        C440   1.395       .  A
C439        H443   1.083       .  S
C440        H444   1.083       .  S
C445        C446   1.408       .  A
C445        C450   1.403       .  A
C445        H455   1.083       .  S
C446        C451   1.491       .  S
C446        C447   1.407       .  A
C447        C448   1.397       .  A
C447        H452   1.083       .  S
C448        C449   1.402       .  A
C448        H453   1.082       .  S
C449        C450   1.404       .  A
C450        H454   1.083       .  S
C451        C456   1.406       .  A
C451        C460   1.407       .  A
C456        C457   1.396       .  A
C456        H461   1.083       .  S
C457        C458   1.405       .  A
C457        H462   1.083       .  S
C458        C459   1.408       .  A
C459        C460   1.404       .  A
C459        H463   1.083       .  S
C460        H464   1.083       .  S
C465        C466   1.407       .  A
C465        C470   1.402       .  A
C465        H475   1.083       .  S
C466        C471   1.485       .  S
C466       C1091   1.406       .  A
C467        C468   1.396       .  A
C467       C1090   1.406       .  A
C467        H472   1.083       .  S
C468       C1093   1.402       .  A
C468        H473   1.083       .  S
C469        C470   1.403       .  A
C469       C1092   1.402       .  A
C470        H474   1.083       .  S
C471        C476   1.407       .  A
C471       C1104   1.405       .  A
C476        C477   1.405       .  A
C476        H481   1.083       .  S
C477        C478   1.407       .  A
C477        H482   1.083       .  S
C478       C1103   1.404       .  A
C479        C480   1.392       .  A
C479       C1102   1.404       .  A
C479        H483   1.083       .  S
C480       C1095   1.404       .  A
C480        H484   1.083       .  S
C485        C486   1.404       .  A
C485        C490   1.397       .  A
C485        H495   1.083       .  S
C486        C491   1.491       .  S
C486        C487   1.409       .  A
C487        C488   1.405       .  A
C487        H492   1.083       .  S
C488        C489   1.406       .  A
C488        H493   1.083       .  S
C489        C490   1.409       .  A
C490        H494   1.083       .  S
C491        C496   1.407       .  A
C491        C500   1.408       .  A
C496        C497   1.397       .  A
C496        H501   1.083       .  S
C497        C498   1.403   1_655  A
C497        H502   1.083   1_655  S
C498        C499   1.405       .  A
C499        C500   1.404   1_455  A
C499        H503   1.083       .  S
C500        H504   1.083       .  S
C505        C506   1.405       .  A
C505        C510   1.401       .  A
C505        H515   1.083       .  S
C506        C511   1.483       .  S
C506        C507   1.406       .  A
C507        C508   1.395       .  A
C507        H512   1.083       .  S
C508        C509   1.403       .  A
C508        H513   1.083       .  S
C509        C510   1.406       .  A
C510        H514   1.083       .  S
C511        C516   1.406       .  A
C511        C520   1.407       .  A
C516        C517   1.397       .  A
C516        H521   1.083       .  S
C517        C518   1.401       .  A
C517        H522   1.084       .  S
C518        C519   1.401       .  A
C519        C520   1.398       .  A
C519        H523   1.083       .  S
C520        H524   1.083       .  S
C525        C526   1.407       .  A
C525        C530   1.401       .  A
C525        H535   1.083       .  S
C526        C531   1.489       .  S
C526        C527   1.407       .  A
C527        C528   1.396       .  A
C527        H532   1.082       .  S
C528        C529   1.403       .  A
C528        H533   1.083       .  S
C529        C530   1.407       .  A
C530        H534   1.083       .  S
C531        C536   1.407       .  A
C531        C540   1.407       .  A
C536        C537   1.400       .  A
C536        H541   1.083       .  S
C537        C538   1.403       .  A
C537        H542   1.083       .  S
C538        C539   1.401       .  A
C539        C540   1.397       .  A
C539        H543   1.081       .  S
C540        H544   1.083       .  S
C545        C546   1.405       .  A
C545        C550   1.398       .  A
C545        H555   1.083       .  S
C546        C551   1.483       .  S
C546        C547   1.404       .  A
C547        C548   1.401       .  A
C547        H552   1.083       .  S
C548        C549   1.405       .  A
C548        H553   1.083       .  S
C549        C550   1.402       .  A
C550        H554   1.079       .  S
C551        C556   1.404       .  A
C551        C560   1.406       .  A
C556        C557   1.396       .  A
C556        H561   1.083       .  S
C557        C558   1.406       .  A
C557        H562   1.084       .  S
C558        C559   1.406       .  A
C559        C560   1.403       .  A
C559        H563   1.083       .  S
C560        H564   1.083       .  S
C565        C566   1.406       .  A
C565        C570   1.402       .  A
C565        H575   1.084       .  S
C566        C571   1.493       .  S
C566        C567   1.406       .  A
C567        C568   1.403       .  A
C567        H572   1.082       .  S
C568        C569   1.408       .  A
C568        H573   1.083       .  S
C569        C570   1.406       .  A
C570        H574   1.077       .  S
C571        C576   1.408       .  A
C571        C580   1.405       .  A
C576        C577   1.403       .  A
C576        H581   1.083       .  S
C577        C578   1.406       .  A
C577        H582   1.083       .  S
C578        C579   1.409       .  A
C579        C580   1.404       .  A
C579        H583   1.083       .  S
C580        H584   1.083       .  S
C585        C586   1.409       .  A
C585        C590   1.396       .  A
C585        H595   1.082       .  S
C586        C591   1.485       .  S
C586        C587   1.405       .  A
C587        C588   1.395       .  A
C587        H592   1.083       .  S
C588        C589   1.402       .  A
C588        H593   1.083       .  S
C589        C590   1.398       .  A
C590        H594   1.084       .  S
C591        C596   1.404       .  A
C591        C600   1.410       .  A
C596        C597   1.392       .  A
C596        H601   1.083       .  S
C597        C598   1.403       .  A
C597        H602   1.083       .  S
C598        C599   1.401       .  A
C599        C600   1.400       .  A
C599        H603   1.083       .  S
C600        H604   1.082       .  S
C605        C606   1.407       .  A
C605        C610   1.402       .  A
C605        H615   1.083       .  S
C606        C611   1.487       .  S
C606       C1231   1.406       .  A
C607        C608   1.396       .  A
C607       C1230   1.405       .  A
C607        H612   1.083       .  S
C608       C1233   1.404       .  A
C608        H613   1.083       .  S
C609        C610   1.405       .  A
C609       C1232   1.403       .  A
C610        H614   1.083       .  S
C611        C616   1.403       .  A
C611       C1244   1.408       .  A
C616        C617   1.395       .  A
C616        H621   1.083       .  S
C617        C618   1.408       .  A
C617        H622   1.083       .  S
C618       C1243   1.406       .  A
C619        C620   1.404       .  A
C619       C1242   1.406       .  A
C619        H623   1.083       .  S
C620       C1235   1.409       .  A
C620        H624   1.083       .  S
N625        C626   1.361       .  A
N625       C1193   1.449       .  S
C626       C1233   1.480       .  S
C627        C628   1.368   1_554  A
C627        H630   1.083       .  S
C628        C629   1.378   1_556  A
C628        H631   1.082       .  S
C629       C1213   1.468   1_554  S
O632       Cr650   1.960       .  S
O632        C640   1.258       .  A
O633       Cr650   2.011       .  S
O633        C634   1.266       .  A
C634       C1182   1.479       .  S
C634        O635   1.259       .  A
O635       Cr651   1.982       .  S
O636       Cr651   2.014       .  S
O636        C637   1.270       .  A
C637       C1153   1.480       .  S
C637        O638   1.261       .  A
O638       Cr652   1.970       .  S
O639       Cr652   2.042       .  S
O639        C640   1.274       .  A
C640       C1113   1.490       .  S
O641       Cr650   2.014       .  S
O641        C649   1.266       .  A
O642       Cr650   1.952       .  S
O642        C643   1.257       .  A
C643       C1222   1.469       .  S
C643        O644   1.269       .  A
O644       Cr651   2.021       .  S
O645       Cr651   1.976       .  S
O645        C646   1.259       .  A
C646       C1202   1.489       .  S
C646        O647   1.270       .  A
O647       Cr652   2.031       .  S
O648       Cr652   1.976       .  S
O648        C649   1.259       .  A
C649       C1133   1.478       .  S
Cr650       O653   1.769       .  S
Cr651       O653   1.767       .  S
Cr652       O653   1.769       .  S
N654       C1173   1.439   1_554  S
C655       C1093   1.476       .  S
C655        C656   1.383       .  A
C656        C657   1.372       .  A
C656        H659   1.082       .  S
C657        C658   1.380       .  A
C657        H660   1.082       .  S
C658       C1162   1.475       .  S
N661        C665   1.360       .  A
N661        C662   1.355   1_565  A
N661       C1073   1.440       .  S
C662       C1142   1.469       .  S
C662        C663   1.381       .  A
C663        C664   1.370       .  A
C663        H666   1.082       .  S
C664        C665   1.383   1_545  A
C664        H667   1.082       .  S
C665       C1053   1.479       .  S
O668       Cr686   1.983       .  S
O669       Cr686   2.011       .  S
O669        C670   1.268       .  A
C670       C1082   1.485       .  S
C670        O671   1.261       .  A
O672       Cr687   2.018       .  S
O672        C673   1.269       .  A
C673       C1062   1.479       .  S
C673        O674   1.261       .  A
O674       Cr688   1.974       .  S
O675       Cr688   2.020       .  S
O675        C676   1.267       .  A
O677       Cr686   2.023       .  S
O678       Cr686   1.985       .  S
O678        C679   1.262       .  A
C679       C1033   1.485       .  S
C679        O680   1.267       .  A
O681       Cr687   1.984       .  S
O681        C682   1.261       .  A
C682       C1013   1.488       .  S
C682        O683   1.267       .  A
O683       Cr688   2.014       .  S
O684       Cr688   1.965       .  S
O684        C685   1.259       .  A
C685       C1102   1.482       .  S
Cr687       O689   1.770       .  S
Cr688       O689   1.769       .  S
N690        C694   1.360       .  A
N690        C691   1.360       .  A
N690       C1022   1.443   1_455  S
C691        C973   1.476       .  S
C691        C692   1.382       .  A
C692        C693   1.372       .  A
C692        H695   1.082       .  S
C693        C694   1.380       .  A
C693        H696   1.082       .  S
C694       C1042   1.478   1_455  S
N697        C701   1.367       .  A
N697        C698   1.366       .  A
N697        C922   1.448       .  S
C698        C962   1.487   1_545  S
C698        C699   1.382   1_545  A
C699        C700   1.369   1_565  A
C699        H702   1.083       .  S
C700        C701   1.381       .  A
C700        H703   1.082       .  S
C701        C933   1.487       .  S
O704       Cr722   2.025       .  S
O704        C712   1.271       .  A
O705       Cr722   1.982       .  S
C706        O707   1.268       .  A
O707       Cr723   2.026       .  S
O708       Cr723   1.972       .  S
O708        C709   1.258       .  A
C709        C882   1.477       .  S
C709        O710   1.267       .  A
O710       Cr724   2.013       .  S
O711        C712   1.261       .  A
C712        C893   1.486       .  S
O713       Cr722   1.992       .  S
O713        C721   1.263       .  A
O714       Cr722   2.031   1_554  S
C715       C1242   1.487       .  S
C715        O716   1.258       .  A
O716       Cr723   1.959       .  S
O717       Cr723   2.027       .  S
O717        C718   1.271       .  A
C718        C913   1.489       .  S
C718        O719   1.262       .  A
O719       Cr724   1.981       .  S
O720        C721   1.267       .  A
C721        C942   1.491       .  S
Cr723       O725   1.769       .  S
Cr724       O725   1.766       .  S
N726        C730   1.358       .  A
N726        C727   1.360       .  A
N726        C902   1.446       .  S
C727       C1122   1.480       .  S
C727        C728   1.385       .  A
C728        C729   1.369       .  A
C728        H731   1.082       .  S
C729        C730   1.377       .  A
C729        H732   1.082       .  S
C730        C873   1.468       .  S
N733        C737   1.363       .  A
N733        C734   1.363       .  A
N733        C833   1.445       .  S
C734        C862   1.480       .  S
C734        C735   1.382       .  A
C735        C736   1.368       .  A
C735        H738   1.083       .  S
C736        C737   1.382       .  A
C736        H739   1.082       .  S
C737        C822   1.482       .  S
O740       Cr758   1.971       .  S
O740        C748   1.260       .  A
O741       Cr758   2.009       .  S
O741        C742   1.264       .  A
C742        C813   1.485       .  S
C742        O743   1.260       .  A
O743       Cr759   1.982       .  S
O744       Cr759   2.007       .  S
O744        C745   1.268       .  A
C745        C842   1.490       .  S
C745        O746   1.267       .  A
O746       Cr760   1.999       .  S
O747       Cr760   2.033       .  S
O747        C748   1.271       .  A
C748        C982   1.487       .  S
O749       Cr758   2.014       .  S
O749        C757   1.266       .  A
O750       Cr758   1.974       .  S
O750        C751   1.261       .  A
C751        C782   1.474       .  S
C751        O752   1.267       .  A
O752       Cr759   2.005       .  S
O753       Cr759   1.982       .  S
O753        C754   1.260       .  A
C754        C793   1.490       .  S
C754        O755   1.268       .  A
O755       Cr760   2.016       .  S
O756       Cr760   2.000       .  S
O756        C757   1.264       .  A
C757        C953   1.493       .  S
Cr758       O761   1.775       .  S
Cr759       O761   1.771       .  S
Cr760       O761   1.777       .  S
N762        C766   1.362       .  A
N762        C763   1.361       .  A
N762        C802   1.447       .  S
C763        C993   1.482       .  S
C763        C764   1.385       .  A
C764        C765   1.368       .  A
C764        H767   1.083       .  S
C765        C766   1.378       .  A
C765        H768   1.082       .  S
C766        C773   1.474       .  S
C769        C770   1.407       .  A
C769        C774   1.394       .  A
C769        H779   1.083       .  S
C770        C775   1.488       .  S
C770        C771   1.408       .  A
C771        C772   1.401       .  A
C771        H776   1.082       .  S
C772        C773   1.403       .  A
C772        H777   1.083       .  S
C773        C774   1.400       .  A
C774        H778   1.083       .  S
C775        C780   1.407       .  A
C775        C784   1.407       .  A
C780        C781   1.394       .  A
C780        H785   1.082       .  S
C781        C782   1.402       .  A
C781        H786   1.083       .  S
C782        C783   1.405       .  A
C783        C784   1.401       .  A
C783        H787   1.083       .  S
C784        H788   1.082       .  S
C789        C790   1.406       .  A
C789        C794   1.405       .  A
C789        H799   1.083       .  S
C790        C795   1.491       .  S
C790        C791   1.406       .  A
C791        C792   1.399       .  A
C791        H796   1.083       .  S
C792        C793   1.406       .  A
C792        H797   1.083       .  S
C793        C794   1.409       .  A
C794        H798   1.083       .  S
C795        C800   1.406       .  A
C795        C804   1.406       .  A
C800        C801   1.404       .  A
C800        H805   1.083       .  S
C801        H806   1.083       .  S
C802        C803   1.404       .  A
C803        H807   1.077       .  S
C809        C810   1.406       .  A
C809        C814   1.398       .  A
C809        H819   1.083       .  S
C810        C815   1.484       .  S
C810        C811   1.403       .  A
C811        C812   1.400       .  A
C811        H816   1.083       .  S
C812        C813   1.408       .  A
C812        H817   1.083       .  S
C813        C814   1.405       .  A
C814        H818   1.083       .  S
C815        C820   1.402       .  A
C815        C824   1.407       .  A
C820        C821   1.395       .  A
C820        H825   1.083       .  S
C821        C822   1.405       .  A
C821        H826   1.083       .  S
C822        C823   1.404       .  A
C823        C824   1.403       .  A
C823        H827   1.083       .  S
C824        H828   1.083       .  S
C829        C830   1.412       .  A
C829        H839   1.082       .  S
C830        C835   1.506       .  S
C830        C831   1.411       .  A
C831        C832   1.404       .  A
C831        H836   1.082       .  S
C832        H837   1.083       .  S
C833        C834   1.401       .  A
C834        H838   1.083       .  S
C835        C840   1.409       .  A
C835        C844   1.413       .  A
C840        C841   1.401       .  A
C840        H845   1.082       .  S
C841        C842   1.406       .  A
C841        H846   1.083       .  S
C842        C843   1.405       .  A
C843        C844   1.407       .  A
C843        H847   1.083       .  S
C844        H848   1.082       .  S
C849        C854   1.406       .  A
C849        H859   1.083       .  S
C850        C855   1.495       .  S
C850        C851   1.407       .  A
C851        C852   1.399       .  A
C851        H856   1.083   1_554  S
C852        C853   1.405       .  A
C852        H857   1.083   1_554  S
C854        H858   1.083       .  S
C855        C860   1.410       .  A
C855        C864   1.406       .  A
C860        C861   1.404   1_554  A
C861        C862   1.403       .  A
C862        C863   1.405       .  A
C863        C864   1.400   1_556  A
C863        H867   1.083       .  S
C864        H868   1.083       .  S
C869        C870   1.406       .  A
C869        C874   1.393       .  A
C869        H879   1.082       .  S
C870        C875   1.486       .  S
C870        C871   1.410       .  A
C871        C872   1.401       .  A
C871        H876   1.083       .  S
C872        C873   1.399       .  A
C872        H877   1.083       .  S
C873        C874   1.399       .  A
C874        H878   1.084       .  S
C875        C880   1.406       .  A
C875        C884   1.407       .  A
C880        C881   1.396       .  A
C880        H885   1.083       .  S
C881        C882   1.404       .  A
C881        H886   1.083       .  S
C882        C883   1.405       .  A
C883        C884   1.398       .  A
C883        H887   1.083       .  S
C884        H888   1.082       .  S
C889        C890   1.408       .  A
C889        C894   1.402       .  A
C889        H899   1.083       .  S
C890        C895   1.492       .  S
C890        C891   1.406       .  A
C891        C892   1.401       .  A
C891        H896   1.083       .  S
C892        C893   1.407       .  A
C892        H897   1.083       .  S
C893        C894   1.406       .  A
C894        H898   1.083       .  S
C895        C900   1.407       .  A
C895        C904   1.407       .  A
C900        C901   1.401       .  A
C900        H905   1.083       .  S
C901        C902   1.406       .  A
C901        H906   1.083       .  S
C902        C903   1.405       .  A
C903        C904   1.401       .  A
C903        H907   1.082       .  S
C904        H908   1.083       .  S
C909        C910   1.406       .  A
C909        C914   1.403       .  A
C909        H919   1.083       .  S
C910        C915   1.491       .  S
C910        C911   1.406       .  A
C911        C912   1.401       .  A
C911        H916   1.083       .  S
C912        C913   1.406       .  A
C912        H917   1.083       .  S
C913        C914   1.408       .  A
C914        H918   1.083       .  S
C915        C920   1.405       .  A
C915        C924   1.407       .  A
C920        C921   1.400       .  A
C920        H925   1.083       .  S
C921        C922   1.406       .  A
C921        H926   1.082       .  S
C922        C923   1.406       .  A
C923        C924   1.404       .  A
C923        H927   1.082       .  S
C924        H928   1.083       .  S
C929        C930   1.406       .  A
C929        C934   1.395       .  A
C929        H939   1.083       .  S
C930        C935   1.496       .  S
C930        C931   1.411       .  A
C931        C932   1.408       .  A
C931        H936   1.083       .  S
C932        C933   1.405       .  A
C932        H937   1.083       .  S
C933        C934   1.403       .  A
C934        H938   1.084       .  S
C935        C940   1.406       .  A
C935        C944   1.409       .  A
C940        C941   1.397       .  A
C940        H945   1.083       .  S
C941        C942   1.406       .  A
C941        H946   1.083       .  S
C942        C943   1.408       .  A
C943        C944   1.407       .  A
C943        H947   1.083       .  S
C944        H948   1.082       .  S
C949        C950   1.410       .  A
C949        C954   1.407       .  A
C949        H959   1.083       .  S
C950        C955   1.501       .  S
C950        C951   1.407       .  A
C951        C952   1.402       .  A
C951        H956   1.083       .  S
C952        C953   1.407       .  A
C952        H957   1.083       .  S
C953        C954   1.407       .  A
C954        H958   1.083       .  S
C955        C960   1.406       .  A
C955        C964   1.411       .  A
C960        C961   1.401       .  A
C960        H965   1.083       .  S
C961        C962   1.406       .  A
C961        H966   1.083       .  S
C962        C963   1.404       .  A
C963        C964   1.408       .  A
C963        H967   1.083       .  S
C964        H968   1.083       .  S
C969        C970   1.407       .  A
C969        C974   1.401       .  A
C969        H979   1.083       .  S
C970        C975   1.490       .  S
C970        C971   1.406       .  A
C971        C972   1.402       .  A
C971        H976   1.083       .  S
C972        C973   1.404       .  A
C972        H977   1.083       .  S
C973        C974   1.402       .  A
C974        H978   1.083       .  S
C975        C980   1.405       .  A
C975        C984   1.407       .  A
C980        C981   1.397       .  A
C980        H985   1.083       .  S
C981        C982   1.406       .  A
C981        H986   1.083       .  S
C982        C983   1.408       .  A
C983        C984   1.406       .  A
C983        H987   1.083       .  S
C984        H988   1.083       .  S
C989        C990   1.404       .  A
C989        C994   1.397       .  A
C989        H999   1.083   1_556  S
C990        C995   1.489       .  S
C990        C991   1.407       .  A
C991        C992   1.407       .  A
C992        C993   1.406       .  A
C992        H997   1.083       .  S
C993        C994   1.404       .  A
C994        H998   1.083       .  S
C995       C1000   1.406       .  A
C1000      C1001   1.397       .  A
C1000      H1005   1.083       .  S
C1001      C1002   1.405       .  A
C1001      H1006   1.083       .  S
C1003      C1004   1.407       .  A
C1003      H1007   1.083       .  S
C1004      H1008   1.083       .  S
C1009      C1010   1.408       .  A
C1009      C1014   1.403       .  A
C1009      H1019   1.082       .  S
C1010      C1015   1.496       .  S
C1010      C1011   1.408       .  A
C1011      C1012   1.399       .  A
C1011      H1016   1.083       .  S
C1012      C1013   1.406       .  A
C1012      H1017   1.083       .  S
C1013      C1014   1.407       .  A
C1014      H1018   1.083       .  S
C1015      C1020   1.408       .  A
C1015      C1024   1.410       .  A
C1020      C1021   1.399       .  A
C1020      H1025   1.082       .  S
C1021      C1022   1.404       .  A
C1021      H1026   1.083       .  S
C1022      C1023   1.403       .  A
C1023      C1024   1.402       .  A
C1023      H1027   1.082   1_655  S
C1024      H1028   1.082       .  S
C1029      C1030   1.406       .  A
C1029      C1034   1.403       .  A
C1029      H1039   1.083       .  S
C1030      C1035   1.486       .  S
C1030      C1031   1.404       .  A
C1031      C1032   1.397       .  A
C1031      H1036   1.083       .  S
C1032      C1033   1.407       .  A
C1032      H1037   1.083       .  S
C1033      C1034   1.407       .  A
C1034      H1038   1.083       .  S
C1035      C1040   1.405       .  A
C1035      C1044   1.408       .  A
C1040      C1041   1.398       .  A
C1040      H1045   1.083       .  S
C1041      C1042   1.403       .  A
C1041      H1046   1.083       .  S
C1042      C1043   1.402       .  A
C1043      C1044   1.401       .  A
C1043      H1047   1.083       .  S
C1044      H1048   1.083       .  S
C1049      C1050   1.404       .  A
C1049      C1054   1.395       .  A
C1049      H1059   1.083       .  S
C1050      C1055   1.484       .  S
C1050      C1051   1.407       .  A
C1051      C1052   1.400       .  A
C1051      H1056   1.083       .  S
C1052      C1053   1.403       .  A
C1052      H1057   1.083       .  S
C1053      C1054   1.404       .  A
C1054      H1058   1.083       .  S
C1055      C1060   1.406       .  A
C1055      C1064   1.405       .  A
C1060      C1061   1.400       .  A
C1060      H1065   1.083       .  S
C1061      C1062   1.406       .  A
C1061      H1066   1.083       .  S
C1062      C1063   1.404       .  A
C1063      C1064   1.397       .  A
C1063      H1067   1.083       .  S
C1064      H1068   1.083       .  S
C1069      C1070   1.408       .  A
C1069      C1074   1.402       .  A
C1069      H1079   1.082       .  S
C1070      C1075   1.491       .  S
C1070      C1071   1.407       .  A
C1071      C1072   1.397       .  A
C1071      H1076   1.083       .  S
C1072      C1073   1.402       .  A
C1072      H1077   1.082       .  S
C1073      C1074   1.403       .  A
C1074      H1078   1.083       .  S
C1075      C1080   1.406       .  A
C1075      C1084   1.407       .  A
C1080      C1081   1.396       .  A
C1080      H1085   1.083       .  S
C1081      C1082   1.405       .  A
C1081      H1086   1.083       .  S
C1082      C1083   1.408       .  A
C1083      C1084   1.403       .  A
C1083      H1087   1.083       .  S
C1084      H1088   1.083       .  S
C1089      C1090   1.407       .  A
C1089      C1094   1.403       .  A
C1089      H1099   1.083       .  S
C1090      C1095   1.487       .  S
C1091      C1092   1.396       .  A
C1091      H1096   1.083       .  S
C1092      H1097   1.083       .  S
C1093      C1094   1.404       .  A
C1094      H1098   1.083       .  S
C1095      C1100   1.408       .  A
C1100      C1101   1.407       .  A
C1100      H1105   1.083       .  S
C1101      C1102   1.407       .  A
C1101      H1106   1.083       .  S
C1103      C1104   1.393       .  A
C1103      H1107   1.083   1_556  S
C1104      H1108   1.083       .  S
C1109      C1110   1.404       .  A
C1109      C1114   1.397       .  A
C1109      H1119   1.083       .  S
C1110      C1115   1.492       .  S
C1110      C1111   1.410       .  A
C1111      C1112   1.405       .  A
C1111      H1116   1.083       .  S
C1112      C1113   1.406       .  A
C1112      H1117   1.083       .  S
C1113      C1114   1.409       .  A
C1114      H1118   1.083       .  S
C1115      C1120   1.406       .  A
C1115      C1124   1.408       .  A
C1120      C1121   1.396       .  A
C1120      H1125   1.083       .  S
C1121      C1122   1.403   1_655  A
C1121      H1126   1.083   1_655  S
C1122      C1123   1.405       .  A
C1123      C1124   1.405   1_455  A
C1123      H1127   1.083       .  S
C1124      H1128   1.083       .  S
C1129      C1130   1.406       .  A
C1129      C1134   1.401       .  A
C1129      H1139   1.083       .  S
C1130      C1135   1.484       .  S
C1130      C1131   1.406       .  A
C1131      C1132   1.396       .  A
C1131      H1136   1.083       .  S
C1132      C1133   1.404       .  A
C1132      H1137   1.083       .  S
C1133      C1134   1.406       .  A
C1134      H1138   1.083       .  S
C1135      C1140   1.405       .  A
C1135      C1144   1.407       .  A
C1140      C1141   1.397       .  A
C1140      H1145   1.083       .  S
C1141      C1142   1.402       .  A
C1141      H1146   1.084       .  S
C1142      C1143   1.402       .  A
C1143      C1144   1.399       .  A
C1143      H1147   1.083       .  S
C1144      H1148   1.083       .  S
C1149      C1150   1.408       .  A
C1149      C1154   1.400       .  A
C1149      H1159   1.082       .  S
C1150      C1155   1.493       .  S
C1150      C1151   1.409       .  A
C1151      C1152   1.395       .  A
C1151      H1156   1.082       .  S
C1152      C1153   1.402       .  A
C1152      H1157   1.083       .  S
C1153      C1154   1.406       .  A
C1154      H1158   1.083       .  S
C1155      C1160   1.409       .  A
C1155      C1164   1.408       .  A
C1160      C1161   1.400       .  A
C1160      H1165   1.082       .  S
C1161      C1162   1.402       .  A
C1161      H1166   1.083       .  S
C1162      C1163   1.400       .  A
C1163      C1164   1.395       .  A
C1163      H1167   1.082       .  S
C1164      H1168   1.082       .  S
C1169      C1170   1.406       .  A
C1169      C1174   1.399       .  A
C1169      H1179   1.083       .  S
C1170      C1175   1.483       .  S
C1170      C1171   1.404       .  A
C1171      C1172   1.399       .  A
C1171      H1176   1.083       .  S
C1172      C1173   1.404       .  A
C1172      H1177   1.083       .  S
C1173      C1174   1.401       .  A
C1174      H1178   1.080   1_556  S
C1175      C1180   1.404       .  A
C1175      C1184   1.405       .  A
C1180      C1181   1.397       .  A
C1180      H1185   1.083       .  S
C1181      C1182   1.405       .  A
C1181      H1186   1.084       .  S
C1182      C1183   1.406       .  A
C1183      C1184   1.402       .  A
C1183      H1187   1.083       .  S
C1184      H1188   1.083       .  S
C1189      C1190   1.406       .  A
C1189      C1194   1.402       .  A
C1189      H1199   1.083       .  S
C1190      C1195   1.493       .  S
C1190      C1191   1.406       .  A
C1191      C1192   1.402       .  A
C1191      H1196   1.082       .  S
C1192      C1193   1.407       .  A
C1192      H1197   1.083       .  S
C1193      C1194   1.406       .  A
C1194      H1198   1.078       .  S
C1195      C1200   1.408       .  A
C1195      C1204   1.405       .  A
C1200      C1201   1.403       .  A
C1200      H1205   1.083       .  S
C1201      C1202   1.406       .  A
C1201      H1206   1.083       .  S
C1202      C1203   1.408       .  A
C1203      C1204   1.402       .  A
C1203      H1207   1.083       .  S
C1204      H1208   1.083       .  S
C1209      C1210   1.410       .  A
C1209      C1214   1.396       .  A
C1209      H1219   1.082       .  S
C1210      C1215   1.485       .  S
C1210      C1211   1.405       .  A
C1211      C1212   1.394       .  A
C1211      H1216   1.083       .  S
C1212      C1213   1.401       .  A
C1212      H1217   1.083       .  S
C1213      C1214   1.399       .  A
C1214      H1218   1.084   1_556  S
C1215      C1220   1.404       .  A
C1215      C1224   1.410       .  A
C1220      C1221   1.392       .  A
C1220      H1225   1.083       .  S
C1221      C1222   1.403       .  A
C1221      H1226   1.083       .  S
C1222      C1223   1.401       .  A
C1223      C1224   1.399       .  A
C1223      H1227   1.083       .  S
C1224      H1228   1.082       .  S
C1229      C1230   1.407       .  A
C1229      C1234   1.403       .  A
C1229      H1239   1.083       .  S
C1230      C1235   1.488       .  S
C1231      C1232   1.396       .  A
C1231      H1236   1.083       .  S
C1232      H1237   1.083       .  S
C1233      C1234   1.405       .  A
C1234      H1238   1.083       .  S
C1235      C1240   1.403       .  A
C1240      C1241   1.396       .  A
C1240      H1245   1.083       .  S
C1241      C1242   1.409       .  A
C1241      H1246   1.083       .  S
C1243      C1244   1.403       .  A
C1243      H1247   1.083   1_554  S
C1244      H1248   1.083       .  S
